9
Title Card Required
O         -0.00000       -0.96940        0.00000
C          1.16380       -0.14080        0.00000
C         -1.16380       -0.14080       -0.00000
C          0.66730        1.28450       -0.00000
O          2.24350       -0.63660        0.00000
C         -0.66730        1.28460        0.00000
O         -2.24350       -0.63660        0.00000
H          1.36800        2.10790       -0.00000
H         -1.36810        2.10790        0.00000
