14
Hypermolecule originated from Resources/DA/diene
D     0.470443 -1.452282 1.0     
D     0.470443 -1.452282 -1.0    
D     0.466988 1.452282 1.0     
D     0.466988 1.452282 -1.0    
C     -0.701309 -0.771378 0.0     
H     -1.628399 -1.30561 0.0     
C     0.470443 -1.452282 0.0     
H     0.471662 -2.522246 0.0     
H     1.397445 -0.918001 0.0     
C     -0.703178 0.768641 0.0     
H     -1.631516 1.300702 0.0     
C     0.466988 1.452282 0.0     
H     1.398459 0.925688 0.0     
H     0.459405 2.522204 0.0     
