13
Title Card Required
C         -3.87200        0.50980        0.00000
H         -3.33890       -0.41790        0.00000
C         -3.19670        1.68470        0.00000
H         -3.72990        2.61240        0.00000
C         -1.65670        1.68470        0.00000
H         -1.12360        2.61240        0.00000
C         -0.97450        0.51380        0.00000
H         -1.50210       -0.41710       -0.00000
H          0.09550        0.52020        0.00000
C         -5.41200        0.50980        0.00000
H         -5.76870       -0.49900       -0.00020
H         -5.76870        1.01400        0.87370
H         -5.76870        1.01430       -0.87360
