13
Hypermolecule originated from Resources/DA/dienophile
D     0.811098 -0.6673  -1.0    
D     0.811098 -0.6673  1.0     
D     0.81118  0.6673   1.0     
D     0.81118  0.6673   -1.0    
O     -1.442811 -3.1e-05 0.0     
C     -0.614195 -1.16382 0.0     
C     -0.614227 1.16378  0.0     
C     0.811098 -0.6673  0.0     
O     -1.10998 -2.243526 0.0     
C     0.81118  0.6673   0.0     
O     -1.110042 2.243474 0.0     
H     1.634508 -1.367989 0.0     
H     1.63447  1.368111 0.0     
