25
structure_0_MEP.xyz_image_0
C      0.143560 -0.726990 -2.508720
H      1.166920 -0.636300 -2.871460
C     -0.517800  0.316670 -1.990110
H     -1.555850  0.224540 -1.658450
C      0.059770  1.647010 -1.842290
H     -0.652440  2.471430 -1.947720
C      1.348420  1.878240 -1.574620
H      2.085760  1.101690 -1.457410
H      1.759130  2.868830 -1.458220
C     -0.465200 -2.075670 -2.654580
H      0.245420 -2.876670 -2.411870
H     -1.348580 -2.218460 -2.012150
H     -0.797470 -2.243450 -3.691350
O     -1.264990  0.261780  1.351570
C     -0.035570  0.854070  1.652480
C     -1.039980 -1.044100  0.867970
C      1.036390 -0.168900  1.346200
O      0.019890  1.963850  2.073960
C      0.430080 -1.278470  0.897940
O     -1.962760 -1.713950  0.531190
H      0.846830 -2.215510  0.576680
C      2.449740  0.148870  1.549840
H      2.733040  1.089440  1.039560
H      2.683840  0.304100  2.619560
H      3.125680 -0.637940  1.180820
25
structure_0_MEP.xyz_image_1
C      0.180150 -0.764428 -2.418280
H      1.243937 -0.738176 -2.644942
C     -0.500448  0.321968 -2.028769
H     -1.582505  0.270311 -1.847858
C      0.082287  1.637424 -1.799196
H     -0.616881  2.471348 -1.910595
C      1.351660  1.853406 -1.440241
H      2.086311  1.074016 -1.327611
H      1.740826  2.834492 -1.223234
C     -0.473998 -2.093137 -2.572138
H      0.185672 -2.919247 -2.274705
H     -1.398288 -2.186113 -1.975598
H     -0.760785 -2.277620 -3.619391
O     -1.281572  0.262918  1.336103
C     -0.048520  0.861820  1.615846
C     -1.055094 -1.024622  0.810144
C      1.025726 -0.142498  1.265167
O      0.002964  1.962724  2.059030
C      0.419726 -1.237575  0.781671
O     -1.977319 -1.709468  0.507160
H      0.838226 -2.154904  0.409928
C      2.441371  0.147838  1.495840
H      2.731063  1.149167  1.129808
H      2.670575  0.144981  2.578963
H      3.113378 -0.580532  1.017278
25
structure_0_MEP.xyz_image_2
C      0.199322 -0.796460 -2.297367
H      1.284579 -0.810445 -2.351302
C     -0.493524  0.329551 -2.066098
H     -1.589257  0.317350 -2.094044
C      0.095827  1.625300 -1.760005
H     -0.581047  2.478020 -1.876814
C      1.345227  1.811786 -1.321479
H      2.064553  1.020449 -1.180077
H      1.741243  2.785495 -1.076765
C     -0.475485 -2.106533 -2.504994
H      0.136716 -2.950177 -2.159105
H     -1.441448 -2.170878 -1.973384
H     -0.691943 -2.278576 -3.571555
O     -1.290591  0.276332  1.313551
C     -0.053318  0.857903  1.614909
C     -1.074780 -1.000766  0.756924
C      1.013250 -0.150217  1.249075
O      0.009248  1.959896  2.053415
C      0.401738 -1.215843  0.708623
O     -2.003115 -1.677361  0.449550
H      0.814083 -2.106729  0.266637
C      2.432011  0.139492  1.468152
H      2.660727  1.199122  1.252551
H      2.738100 -0.031008  2.516975
H      3.094658 -0.482546  0.849044
25
structure_0_MEP.xyz_image_3
C      0.204536 -0.825773 -2.199749
H      1.284972 -0.880470 -2.073525
C     -0.468121  0.333441 -2.122370
H     -1.541594  0.361808 -2.331857
C      0.110295  1.607764 -1.721675
H     -0.567039  2.464650 -1.809245
C      1.336209  1.770443 -1.212690
H      2.056733  0.977218 -1.101239
H      1.710295  2.723415 -0.868561
C     -0.482054 -2.121264 -2.453219
H      0.080609 -2.980301 -2.066617
H     -1.476709 -2.160565 -1.976321
H     -0.639054 -2.288804 -3.527896
O     -1.295250  0.294297  1.294213
C     -0.057636  0.871498  1.591464
C     -1.083590 -0.972638  0.711983
C      1.005191 -0.128587  1.192106
O      0.010463  1.963845  2.052923
C      0.388554 -1.184398  0.640375
O     -2.017522 -1.643644  0.405686
H      0.800143 -2.064047  0.177556
C      2.425696  0.139703  1.430656
H      2.662232  1.219629  1.382652
H      2.737456 -0.199230  2.437165
H      3.081455 -0.376465  0.709795
25
structure_0_MEP.xyz_image_4
C      0.197323 -0.889484 -1.950230
H      1.290442 -0.921234 -1.922293
C     -0.484476  0.311520 -1.995807
H     -1.526179  0.333638 -2.326855
C      0.069679  1.486067 -1.467243
H     -0.568446  2.372726 -1.397153
C      1.321494  1.496904 -0.883612
H      2.123619  0.856604 -1.228692
H      1.684101  2.382814 -0.373820
C     -0.473189 -2.155572 -2.350561
H      0.070703 -3.050909 -2.021930
H     -1.496805 -2.239679 -1.941147
H     -0.568653 -2.222389 -3.446125
O     -1.272045  0.366708  1.175792
C     -0.050450  1.021903  1.342045
C     -1.057517 -0.873717  0.534756
C      1.020680  0.156668  0.730118
O     -0.003976  2.074025  1.900114
C      0.387248 -0.993219  0.256369
O     -1.991767 -1.589130  0.339109
H      0.840142 -1.958489  0.111186
C      2.398497  0.214748  1.271752
H      2.749040  1.247110  1.432472
H      2.448077 -0.284254  2.256990
H      3.132714 -0.286712  0.625306
25
structure_0_MEP.xyz_image_5
C      0.249771 -0.952179 -1.602817
H      1.314631 -0.943450 -1.951922
C     -0.455194  0.330547 -1.947818
H     -1.388875  0.270497 -2.491633
C      0.041145  1.461252 -1.432964
H     -0.461074  2.419653 -1.471340
C      1.298381  1.342066 -0.634598
H      2.136990  0.966593 -1.260088
H      1.645317  2.310723 -0.230013
C     -0.449871 -2.159608 -2.217985
H     -0.041521 -3.107821 -1.857839
H     -1.528661 -2.167186 -2.002393
H     -0.350944 -2.165931 -3.313808
O     -1.240376  0.315742  1.270373
C     -0.031374  0.985521  1.381014
C     -1.119450 -0.813748  0.466392
C      1.031959  0.314642  0.509520
O      0.036066  1.974543  2.042844
C      0.309445 -0.955884 -0.032497
O     -2.091312 -1.464265  0.244204
H      0.757705 -1.903699  0.322374
C      2.321934  0.125463  1.288672
H      2.577308  1.058741  1.824650
H      2.295062 -0.668000  2.041097
H      3.169615 -0.086031  0.621371
25
structure_0_MEP.xyz_image_6
C      0.207510 -0.903725 -1.651288
H      1.239807 -0.890290 -2.099490
C     -0.483593  0.375424 -2.033515
H     -1.379539  0.307768 -2.634906
C      0.035014  1.520538 -1.576934
H     -0.381406  2.502869 -1.760084
C      1.255544  1.433660 -0.716412
H      2.126332  1.125656 -1.336247
H      1.538635  2.414535 -0.287691
C     -0.503520 -2.142228 -2.184294
H      0.033185 -3.060901 -1.924082
H     -1.525154 -2.246667 -1.794141
H     -0.581274 -2.108952 -3.279190
O     -1.135733  0.153976  1.394138
C     -0.019705  0.975728  1.356715
C     -0.976170 -0.954994  0.568726
C      1.030150  0.398237  0.405758
O      0.007986  1.964928  2.018999
C      0.379865 -0.914974 -0.110616
O     -1.862125 -1.748592  0.503347
H      0.972115 -1.810361  0.190120
C      2.319750  0.177375  1.182506
H      2.830228  1.135656  1.370126
H      2.150470 -0.278498  2.167333
H      3.024907 -0.460797  0.637779
25
structure_0_MEP.xyz_image_7
C      0.229870 -0.927180 -1.634370
H      1.276580 -0.999910 -2.042460
C     -0.361590  0.365540 -2.113050
H     -1.161740  0.308620 -2.841930
C      0.119520  1.513470 -1.625580
H     -0.248040  2.490630 -1.919000
C      1.228960  1.481040 -0.623890
H      2.189870  1.287700 -1.150150
H      1.362300  2.469070 -0.133060
C     -0.554950 -2.142230 -2.122360
H     -0.147200 -3.078350 -1.725150
H     -1.611660 -2.102250 -1.820210
H     -0.535940 -2.212930 -3.215910
O     -1.155830  0.126400  1.451330
C     -0.035980  0.942440  1.433900
C     -1.015760 -0.944570  0.574060
C      0.998920  0.397290  0.447590
O      0.002140  1.905900  2.133100
C      0.345090 -0.901000 -0.093840
O     -1.907190 -1.729940  0.487290
H      0.922690 -1.801150  0.230390
C      2.288350  0.108500  1.205700
H      2.704540  1.024390  1.653310
H      2.138790 -0.604530  2.027720
H      3.059040 -0.309170  0.545480
