25
structure_7_MEP.xyz_image_0
C     -0.790160 -0.106660 -2.305160
H      0.235870  0.044650 -2.646040
C     -1.488260  0.870780 -1.710050
H     -2.522210  0.719150 -1.399600
C     -0.957770  2.204700 -1.456380
H     -1.711820  2.994670 -1.406870
C      0.337770  2.482670 -1.283190
H      1.124960  1.745350 -1.319600
H      0.711060  3.477650 -1.095030
C     -1.339610 -1.464210 -2.555460
H     -0.775600 -2.228450 -1.991950
H     -2.394840 -1.567230 -2.274900
H     -1.259980 -1.736590 -3.619130
O      1.673570 -0.743030  0.772370
C      0.437470 -1.384950  0.722650
C      1.514270  0.516640  1.397270
C     -0.572910 -0.458670  1.363250
O      0.328630 -2.466300  0.238900
C      0.076430  0.647480  1.756910
O      2.458860  1.223880  1.532720
H     -0.294090  1.532900  2.242150
C     -1.982500 -0.839980  1.447590
H     -2.417550 -0.989000  0.439970
H     -2.120270 -1.797470  1.982310
H     -2.603030 -0.087100  1.958050
25
structure_7_MEP.xyz_image_1
C     -0.778094 -0.129000 -2.203176
H      0.282491 -0.040104 -2.438268
C     -1.496092  0.895333 -1.721075
H     -2.570399  0.785756 -1.539388
C     -0.960163  2.211866 -1.401859
H     -1.705735  3.009903 -1.368356
C      0.324782  2.472146 -1.142208
H      1.113160  1.737420 -1.183300
H      0.682015  3.450157 -0.864631
C     -1.367925 -1.471272 -2.453865
H     -0.812929 -2.259597 -1.914695
H     -2.421018 -1.551431 -2.153132
H     -1.322369 -1.735776 -3.521568
O      1.704931 -0.751941  0.763992
C      0.464511 -1.384662  0.681705
C      1.528088  0.526304  1.340893
C     -0.562729 -0.438211  1.256058
O      0.369310 -2.479851  0.227305
C      0.076116  0.680669  1.627134
O      2.472413  1.224087  1.516321
H     -0.310013  1.582397  2.065200
C     -1.972600 -0.817855  1.351775
H     -2.378769 -1.150082  0.378320
H     -2.109120 -1.669736  2.045179
H     -2.616923  0.001880  1.705920
25
structure_7_MEP.xyz_image_2
C     -0.786958 -0.144674 -2.080777
H      0.300310 -0.098497 -2.179911
C     -1.518161  0.922578 -1.724897
H     -2.607129  0.858016 -1.694468
C     -0.971029  2.220019 -1.352954
H     -1.705390  3.031312 -1.328945
C      0.304329  2.452994 -1.029052
H      1.082673  1.707927 -1.035665
H      0.668324  3.425279 -0.735236
C     -1.394047 -1.470955 -2.374822
H     -0.851161 -2.285099 -1.860734
H     -2.447749 -1.540623 -2.069747
H     -1.351988 -1.693354 -3.453692
O      1.727166 -0.759979  0.752133
C      0.491099 -1.400921  0.680608
C      1.545645  0.532734  1.298368
C     -0.542247 -0.435785  1.219909
O      0.398517 -2.501414  0.238279
C      0.090262  0.702270  1.549699
O      2.492307  1.232695  1.464394
H     -0.307218  1.634900  1.910782
C     -1.955473 -0.808773  1.274667
H     -2.273736 -1.334297  0.353631
H     -2.170356 -1.496049  2.111608
H     -2.622227  0.061169  1.398218
25
structure_7_MEP.xyz_image_3
C     -0.801701 -0.159202 -1.958455
H      0.288424 -0.159371 -1.893911
C     -1.527450  0.948483 -1.740997
H     -2.612535  0.930384 -1.851454
C     -0.983503  2.229659 -1.314405
H     -1.715995  3.042201 -1.270468
C      0.285752  2.442742 -0.952851
H      1.066983  1.700214 -0.996816
H      0.645583  3.391828 -0.586896
C     -1.417389 -1.468686 -2.302171
H     -0.890453 -2.310288 -1.820721
H     -2.472708 -1.540699 -2.005066
H     -1.370740 -1.646518 -3.388269
O      1.751679 -0.778339  0.768776
C      0.513396 -1.411163  0.671816
C      1.561873  0.533051  1.266416
C     -0.528512 -0.420273  1.137848
O      0.426837 -2.529692  0.276980
C      0.101135  0.716154  1.473519
O      2.506696  1.235207  1.427339
H     -0.300973  1.653048  1.816792
C     -1.942915 -0.788219  1.188569
H     -2.228223 -1.504668  0.397072
H     -2.180355 -1.276835  2.149775
H     -2.611899  0.082093  1.083163
25
structure_7_MEP.xyz_image_4
C     -0.804143 -0.220447 -1.651708
H      0.289407 -0.198157 -1.683595
C     -1.539403  0.946797 -1.615741
H     -2.598291  0.929891 -1.877225
C     -0.997888  2.135233 -1.102980
H     -1.659134  2.990115 -0.953778
C      0.301418  2.186238 -0.633373
H      1.092392  1.589550 -1.080459
H      0.687108  3.071609 -0.139443
C     -1.412184 -1.501448 -2.100697
H     -0.913656 -2.379959 -1.652993
H     -2.481845 -1.581770 -1.868605
H     -1.313106 -1.616118 -3.193551
O      1.739540 -0.719887  0.770908
C      0.504528 -1.335042  0.492071
C      1.524932  0.620474  1.119849
C     -0.555411 -0.295303  0.607427
O      0.483695 -2.498105  0.231036
C      0.067579  0.900571  0.977298
O      2.445336  1.301536  1.449797
H     -0.398190  1.686653  1.553559
C     -1.942171 -0.676246  0.945973
H     -2.275621 -1.584568  0.419758
H     -2.043362 -0.891940  2.023728
H     -2.662226  0.123527  0.715009
25
structure_7_MEP.xyz_image_5
C     -0.775989 -0.215140 -1.319462
H      0.247658 -0.083302 -1.763674
C     -1.596045  1.032254 -1.506973
H     -2.596474  0.938299 -1.901580
C     -1.071950  2.167833 -1.025163
H     -1.588429  3.112573 -0.955117
C      0.281010  2.057347 -0.400674
H      1.035304  1.692054 -1.137950
H      0.700370  3.011190 -0.037412
C     -1.377842 -1.460851 -1.958276
H     -0.891561 -2.377657 -1.592593
H     -2.449599 -1.570009 -1.768320
H     -1.241028 -1.448070 -3.051049
O      1.655478 -0.772350  0.954716
C      0.459840 -1.355577  0.539266
C      1.512543  0.594849  1.132388
C     -0.585275 -0.289566  0.246960
O      0.408428 -2.540944  0.435482
C      0.115512  1.017427  0.739371
O      2.444265  1.248465  1.484808
H     -0.424983  1.499411  1.582595
C     -1.926562 -0.642936  0.882464
H     -2.096321 -1.731434  0.824144
H     -2.054910 -0.345864  1.926773
H     -2.766682 -0.182067  0.335001
25
structure_7_MEP.xyz_image_6
C     -0.782386 -0.255894 -1.389653
H      0.224273 -0.151300 -1.886831
C     -1.563084  1.002277 -1.645023
H     -2.491602  0.920531 -2.192093
C     -1.071950  2.146324 -1.156296
H     -1.548135  3.110681 -1.262556
C      0.215633  2.087853 -0.395605
H      1.052434  1.867319 -1.097778
H      0.481568  3.058244  0.064912
C     -1.447734 -1.497468 -1.974674
H     -0.960944 -2.420478 -1.624772
H     -2.509992 -1.567327 -1.719991
H     -1.378769 -1.499051 -3.070785
O      1.653104 -0.799532  0.967262
C      0.509296 -1.391839  0.437016
C      1.495763  0.570517  1.117700
C     -0.545130 -0.330196  0.147317
O      0.496108 -2.571998  0.285888
C      0.111986  0.983744  0.668777
O      2.396803  1.220766  1.549781
H     -0.453339  1.382868  1.545866
C     -1.819005 -0.666426  0.911812
H     -2.328573 -1.542029  0.483549
H     -1.640176 -0.897258  1.968930
H     -2.537028  0.162593  0.871774
25
structure_7_MEP.xyz_image_7
C     -0.764780 -0.271100 -1.379310
H      0.247710 -0.244750 -1.872120
C     -1.469440  1.011570 -1.712230
H     -2.327760  0.949680 -2.370090
C     -1.011410  2.157250 -1.197750
H     -1.458330  3.124530 -1.395680
C      0.190370  2.135720 -0.309520
H      1.105850  2.046480 -0.938280
H      0.313460  3.093960  0.236380
C     -1.514780 -1.489070 -1.914630
H     -1.052890 -2.429730 -1.580890
H     -2.561690 -1.506200 -1.593240
H     -1.511570 -1.501280 -3.011350
O      1.648280 -0.813010  0.984700
C      0.500190 -1.400060  0.460760
C      1.496160  0.559610  1.125950
C     -0.543950 -0.328620  0.155990
O      0.469570 -2.582240  0.323160
C      0.105590  0.976510  0.695180
O      2.404670  1.209030  1.540910
H     -0.458780  1.335960  1.592830
C     -1.820860 -0.659480  0.917570
H     -2.188510 -1.668270  0.675310
H     -1.681240 -0.627310  2.005580
H     -2.623570  0.047010  0.663460
