12
Structure 1 - Rel. E. = 0.0 kcal/mol
C     -0.665633 -1.099999 -0.000000
C      0.665637 -1.100001 -0.000000
H     -1.213145 -1.100003  0.936894
H     -1.213156 -1.100003 -0.936888
H      1.213160 -1.099997  0.936888
H      1.213149 -1.099997 -0.936894
C     -0.034345  2.800273  0.821155
O     -0.068404  3.203943 -0.314077
H     -0.018532  3.373789  1.749689
O      0.000000  1.480385  1.132209
O      0.000000  0.609633  0.000000
H      0.000000  1.219184 -0.792578
12
Structure 2 - Rel. E. = 0.0 kcal/mol
C     -0.665633 -1.099999 -0.000000
C      0.665637 -1.100001 -0.000000
H     -1.213145 -1.099994 -0.936894
H     -1.213156 -1.099994  0.936888
H      1.213160 -1.100006 -0.936888
H      1.213149 -1.100006  0.936894
C     -0.034345  2.800273  0.821155
O     -0.068404  3.203943 -0.314077
H     -0.018532  3.373789  1.749689
O      0.000000  1.480385  1.132209
O      0.000000  0.609633  0.000000
H      0.000000  1.219184 -0.792578
12
Structure 3 - Rel. E. = 0.0 kcal/mol
C     -0.665633 -1.099999 -0.000000
C      0.665637 -1.100001 -0.000000
H     -1.213146 -1.911370 -0.468451
H     -1.213155 -0.288628  0.468440
H      1.213159 -1.911372 -0.468440
H      1.213150 -0.288630  0.468451
C     -0.034345  2.800273  0.821155
O     -0.068404  3.203943 -0.314077
H     -0.018532  3.373789  1.749689
O      0.000000  1.480385  1.132209
O      0.000000  0.609633  0.000000
H      0.000000  1.219184 -0.792578
12
Structure 4 - Rel. E. = 0.0 kcal/mol
C     -0.665633 -1.099999 -0.000000
C      0.665637 -1.100001 -0.000000
H     -1.213146 -1.911375  0.468443
H     -1.213155 -0.288633 -0.468448
H      1.213159 -1.911367  0.468448
H      1.213150 -0.288625 -0.468443
C     -0.034345  2.800273  0.821155
O     -0.068404  3.203943 -0.314077
H     -0.018532  3.373789  1.749689
O      0.000000  1.480385  1.132209
O      0.000000  0.609633  0.000000
H      0.000000  1.219184 -0.792578
12
Structure 5 - Rel. E. = 0.0 kcal/mol
C     -0.665633 -1.099999 -0.000000
C      0.665637 -1.100001 -0.000000
H     -1.213144 -0.288622 -0.468443
H     -1.213157 -1.911365  0.468448
H      1.213161 -0.288635 -0.468448
H      1.213148 -1.911378  0.468443
C     -0.034345  0.993811  2.307728
O     -0.068404  2.178786  2.089701
H     -0.018532  0.476435  3.268674
O      0.000000  0.064487  1.320198
O      0.000000  0.609633  0.000000
H      0.000000  1.600801  0.131598
12
Structure 6 - Rel. E. = 0.0 kcal/mol
C     -0.665633 -1.099999 -0.000000
C      0.665637 -1.100001 -0.000000
H     -1.213145 -1.099994 -0.936894
H     -1.213156 -1.099994  0.936888
H      1.213160 -1.100006 -0.936888
H      1.213149 -1.100006  0.936894
C     -0.034345  0.993811  2.307728
O     -0.068404  2.178786  2.089701
H     -0.018532  0.476435  3.268674
O      0.000000  0.064487  1.320198
O      0.000000  0.609633  0.000000
H      0.000000  1.600801  0.131598
12
Structure 7 - Rel. E. = 0.0 kcal/mol
C     -0.665633 -1.099999 -0.000000
C      0.665637 -1.100001 -0.000000
H     -1.213146 -1.911370 -0.468451
H     -1.213155 -0.288628  0.468440
H      1.213159 -1.911372 -0.468440
H      1.213150 -0.288630  0.468451
C     -0.034345  0.993811  2.307728
O     -0.068404  2.178786  2.089701
H     -0.018532  0.476435  3.268674
O      0.000000  0.064487  1.320198
O      0.000000  0.609633  0.000000
H      0.000000  1.600801  0.131598
12
Structure 8 - Rel. E. = 0.0 kcal/mol
C     -0.665633 -1.099999 -0.000000
C      0.665637 -1.100001 -0.000000
H     -1.213146 -1.911375  0.468443
H     -1.213155 -0.288633 -0.468448
H      1.213159 -1.911367  0.468448
H      1.213150 -0.288625 -0.468443
C     -0.034345  0.993811  2.307728
O     -0.068404  2.178786  2.089701
H     -0.018532  0.476435  3.268674
O      0.000000  0.064487  1.320198
O      0.000000  0.609633  0.000000
H      0.000000  1.600801  0.131598
12
Structure 9 - Rel. E. = 0.0 kcal/mol
C     -0.665633 -1.099999 -0.000000
C      0.665637 -1.100001 -0.000000
H     -1.213144 -0.288627  0.468451
H     -1.213157 -1.911370 -0.468440
H      1.213161 -0.288630  0.468440
H      1.213148 -1.911373 -0.468451
C     -0.034345 -1.196829  1.486573
O     -0.068404 -0.415524  2.403777
H     -0.018532 -2.287721  1.518985
O     -0.000000 -0.806266  0.187989
O      0.000000  0.609633  0.000000
H      0.000000  0.991250  0.924176
12
Structure 10 - Rel. E. = 0.0 kcal/mol
C     -0.665633 -1.099999 -0.000000
C      0.665637 -1.100001 -0.000000
H     -1.213146 -1.911375  0.468443
H     -1.213155 -0.288633 -0.468448
H      1.213159 -1.911367  0.468448
H      1.213150 -0.288625 -0.468443
C     -0.034345 -1.196829  1.486573
O     -0.068404 -0.415524  2.403777
H     -0.018532 -2.287721  1.518985
O     -0.000000 -0.806266  0.187989
O      0.000000  0.609633  0.000000
H      0.000000  0.991250  0.924176
12
Structure 11 - Rel. E. = 0.0 kcal/mol
C     -0.665633 -1.099999 -0.000000
C      0.665637 -1.100001 -0.000000
H     -1.213145 -1.100003  0.936894
H     -1.213156 -1.100003 -0.936888
H      1.213160 -1.099997  0.936888
H      1.213149 -1.099997 -0.936894
C     -0.034345  0.225454 -2.307728
O     -0.068404 -0.959521 -2.089701
H     -0.018532  0.742830 -3.268674
O      0.000000  1.154778 -1.320198
O      0.000000  0.609633  0.000000
H     -0.000000 -0.381536 -0.131598
12
Structure 12 - Rel. E. = 0.0 kcal/mol
C     -0.665633 -1.099999 -0.000000
C      0.665637 -1.100001 -0.000000
H     -1.213146 -1.911370 -0.468451
H     -1.213155 -0.288628  0.468440
H      1.213159 -1.911372 -0.468440
H      1.213150 -0.288630  0.468451
C     -0.034345  0.225454 -2.307728
O     -0.068404 -0.959521 -2.089701
H     -0.018532  0.742830 -3.268674
O      0.000000  1.154778 -1.320198
O      0.000000  0.609633  0.000000
H     -0.000000 -0.381536 -0.131598
12
Structure 13 - Rel. E. = 0.0 kcal/mol
C     -0.665633 -1.099999 -0.000000
C      0.665637 -1.100001 -0.000000
H     -1.213144 -0.288622 -0.468443
H     -1.213157 -1.911365  0.468448
H      1.213161 -0.288635 -0.468448
H      1.213148 -1.911378  0.468443
C     -0.034345  2.416094 -1.486573
O     -0.068404  1.634790 -2.403777
H     -0.018532  3.506986 -1.518985
O      0.000000  2.025531 -0.187989
O      0.000000  0.609633  0.000000
H     -0.000000  0.228015 -0.924176
12
Structure 14 - Rel. E. = 0.0 kcal/mol
C     -0.665633 -1.099999 -0.000000
C      0.665637 -1.100001 -0.000000
H     -1.213145 -1.099994 -0.936894
H     -1.213156 -1.099994  0.936888
H      1.213160 -1.100006 -0.936888
H      1.213149 -1.100006  0.936894
C     -0.034345  2.416094 -1.486573
O     -0.068404  1.634790 -2.403777
H     -0.018532  3.506986 -1.518985
O      0.000000  2.025531 -0.187989
O      0.000000  0.609633  0.000000
H     -0.000000  0.228015 -0.924176
12
Structure 15 - Rel. E. = 0.0 kcal/mol
C     -0.665633 -1.099999 -0.000000
C      0.665637 -1.100001 -0.000000
H     -1.213146 -1.911370 -0.468451
H     -1.213155 -0.288628  0.468440
H      1.213159 -1.911372 -0.468440
H      1.213150 -0.288630  0.468451
C     -0.034345  2.416094 -1.486573
O     -0.068404  1.634790 -2.403777
H     -0.018532  3.506986 -1.518985
O      0.000000  2.025531 -0.187989
O      0.000000  0.609633  0.000000
H     -0.000000  0.228015 -0.924176
12
Structure 16 - Rel. E. = 0.0 kcal/mol
C     -0.665633 -1.099999 -0.000000
C      0.665637 -1.100001 -0.000000
H     -1.213145 -1.100003  0.936894
H     -1.213156 -1.100003 -0.936888
H      1.213160 -1.099997  0.936888
H      1.213149 -1.099997 -0.936894
C      0.034345  2.800273 -0.821155
O      0.068404  3.203943  0.314077
H      0.018532  3.373789 -1.749689
O     -0.000000  1.480385 -1.132209
O     -0.000000  0.609633 -0.000000
H     -0.000000  1.219184  0.792578
12
Structure 17 - Rel. E. = 0.0 kcal/mol
C     -0.665633 -1.099999 -0.000000
C      0.665637 -1.100001 -0.000000
H     -1.213144 -0.288627  0.468451
H     -1.213157 -1.911370 -0.468440
H      1.213161 -0.288630  0.468440
H      1.213148 -1.911373 -0.468451
C      0.034345  2.800273 -0.821155
O      0.068404  3.203943  0.314077
H      0.018532  3.373789 -1.749689
O     -0.000000  1.480385 -1.132209
O     -0.000000  0.609633 -0.000000
H     -0.000000  1.219184  0.792578
12
Structure 18 - Rel. E. = 0.0 kcal/mol
C     -0.665633 -1.099999 -0.000000
C      0.665637 -1.100001 -0.000000
H     -1.213144 -0.288627  0.468451
H     -1.213157 -1.911370 -0.468440
H      1.213161 -0.288630  0.468440
H      1.213148 -1.911373 -0.468451
C      0.034345  0.993811 -2.307728
O      0.068404  2.178786 -2.089701
H      0.018532  0.476435 -3.268674
O      0.000000  0.064487 -1.320198
O     -0.000000  0.609633  0.000000
H     -0.000000  1.600801 -0.131598
12
Structure 19 - Rel. E. = 0.0 kcal/mol
C     -0.665633 -1.099999 -0.000000
C      0.665637 -1.100001 -0.000000
H     -1.213145 -1.099994 -0.936894
H     -1.213156 -1.099994  0.936888
H      1.213160 -1.100006 -0.936888
H      1.213149 -1.100006  0.936894
C      0.034345  0.993811 -2.307728
O      0.068404  2.178786 -2.089701
H      0.018532  0.476435 -3.268674
O      0.000000  0.064487 -1.320198
O     -0.000000  0.609633  0.000000
H     -0.000000  1.600801 -0.131598
12
Structure 20 - Rel. E. = 0.0 kcal/mol
C     -0.665633 -1.099999 -0.000000
C      0.665637 -1.100001 -0.000000
H     -1.213146 -1.911370 -0.468451
H     -1.213155 -0.288628  0.468440
H      1.213159 -1.911372 -0.468440
H      1.213150 -0.288630  0.468451
C      0.034345  0.993811 -2.307728
O      0.068404  2.178786 -2.089701
H      0.018532  0.476435 -3.268674
O      0.000000  0.064487 -1.320198
O     -0.000000  0.609633  0.000000
H     -0.000000  1.600801 -0.131598
12
Structure 21 - Rel. E. = 0.0 kcal/mol
C     -0.665633 -1.099999 -0.000000
C      0.665637 -1.100001 -0.000000
H     -1.213144 -0.288627  0.468451
H     -1.213157 -1.911370 -0.468440
H      1.213161 -0.288630  0.468440
H      1.213148 -1.911373 -0.468451
C      0.034345  0.225454  2.307728
O      0.068404 -0.959521  2.089701
H      0.018532  0.742830  3.268674
O     -0.000000  1.154778  1.320198
O     -0.000000  0.609633 -0.000000
H      0.000000 -0.381536  0.131598
12
Structure 22 - Rel. E. = 0.0 kcal/mol
C     -0.665633 -1.099999 -0.000000
C      0.665637 -1.100001 -0.000000
H     -1.213145 -1.099994 -0.936894
H     -1.213156 -1.099994  0.936888
H      1.213160 -1.100006 -0.936888
H      1.213149 -1.100006  0.936894
C      0.034345  0.225454  2.307728
O      0.068404 -0.959521  2.089701
H      0.018532  0.742830  3.268674
O     -0.000000  1.154778  1.320198
O     -0.000000  0.609633 -0.000000
H      0.000000 -0.381536  0.131598
12
Structure 23 - Rel. E. = 0.0 kcal/mol
C     -0.665633 -1.099999 -0.000000
C      0.665637 -1.100001 -0.000000
H     -1.213146 -1.911370 -0.468451
H     -1.213155 -0.288628  0.468440
H      1.213159 -1.911372 -0.468440
H      1.213150 -0.288630  0.468451
C      0.034345  0.225454  2.307728
O      0.068404 -0.959521  2.089701
H      0.018532  0.742830  3.268674
O     -0.000000  1.154778  1.320198
O     -0.000000  0.609633 -0.000000
H      0.000000 -0.381536  0.131598
12
Structure 24 - Rel. E. = 0.0 kcal/mol
C     -0.665633 -1.099999 -0.000000
C      0.665637 -1.100001 -0.000000
H     -1.213146 -1.911375  0.468443
H     -1.213155 -0.288633 -0.468448
H      1.213159 -1.911367  0.468448
H      1.213150 -0.288625 -0.468443
C      0.034345  0.225454  2.307728
O      0.068404 -0.959521  2.089701
H      0.018532  0.742830  3.268674
O     -0.000000  1.154778  1.320198
O     -0.000000  0.609633 -0.000000
H      0.000000 -0.381536  0.131598
12
Structure 25 - Rel. E. = 0.0 kcal/mol
C     -0.665633 -1.099999 -0.000000
C      0.665637 -1.100001 -0.000000
H     -1.213144 -0.288627  0.468451
H     -1.213157 -1.911370 -0.468440
H      1.213161 -0.288630  0.468440
H      1.213148 -1.911373 -0.468451
C      0.034345  2.416094  1.486573
O      0.068404  1.634790  2.403777
H      0.018532  3.506986  1.518985
O     -0.000000  2.025531  0.187989
O     -0.000000  0.609633  0.000000
H      0.000000  0.228015  0.924176
12
Structure 26 - Rel. E. = 0.0 kcal/mol
C     -0.665633 -1.099999 -0.000000
C      0.665637 -1.100001 -0.000000
H     -1.213144 -0.288622 -0.468443
H     -1.213157 -1.911365  0.468448
H      1.213161 -0.288635 -0.468448
H      1.213148 -1.911378  0.468443
C      0.034345  2.416094  1.486573
O      0.068404  1.634790  2.403777
H      0.018532  3.506986  1.518985
O     -0.000000  2.025531  0.187989
O     -0.000000  0.609633  0.000000
H      0.000000  0.228015  0.924176
12
Structure 27 - Rel. E. = 0.0 kcal/mol
C     -0.665633 -1.099999 -0.000000
C      0.665637 -1.100001 -0.000000
H     -1.213146 -1.911375  0.468443
H     -1.213155 -0.288633 -0.468448
H      1.213159 -1.911367  0.468448
H      1.213150 -0.288625 -0.468443
C      0.034345  2.416094  1.486573
O      0.068404  1.634790  2.403777
H      0.018532  3.506986  1.518985
O     -0.000000  2.025531  0.187989
O     -0.000000  0.609633  0.000000
H      0.000000  0.228015  0.924176
12
Structure 28 - Rel. E. = 0.0 kcal/mol
C     -0.665637 -1.100001  0.000000
C      0.665633 -1.099999 -0.000000
H     -1.213150 -0.288630  0.468451
H     -1.213159 -1.911372 -0.468440
H      1.213155 -0.288628  0.468440
H      1.213146 -1.911370 -0.468451
C     -0.034345  2.800273  0.821155
O     -0.068404  3.203943 -0.314077
H     -0.018532  3.373789  1.749689
O      0.000000  1.480385  1.132209
O      0.000000  0.609633  0.000000
H      0.000000  1.219184 -0.792578
12
Structure 29 - Rel. E. = 0.0 kcal/mol
C     -0.665637 -1.100001  0.000000
C      0.665633 -1.099999 -0.000000
H     -1.213150 -0.288625 -0.468443
H     -1.213159 -1.911367  0.468448
H      1.213155 -0.288633 -0.468448
H      1.213146 -1.911375  0.468443
C     -0.034345  2.800273  0.821155
O     -0.068404  3.203943 -0.314077
H     -0.018532  3.373789  1.749689
O      0.000000  1.480385  1.132209
O      0.000000  0.609633  0.000000
H      0.000000  1.219184 -0.792578
12
Structure 30 - Rel. E. = 0.0 kcal/mol
C     -0.665637 -1.100001  0.000000
C      0.665633 -1.099999 -0.000000
H     -1.213149 -1.100006  0.936894
H     -1.213160 -1.100006 -0.936888
H      1.213156 -1.099994  0.936888
H      1.213145 -1.099994 -0.936894
C     -0.034345  0.993811  2.307728
O     -0.068404  2.178786  2.089701
H     -0.018532  0.476435  3.268674
O      0.000000  0.064487  1.320198
O      0.000000  0.609633  0.000000
H      0.000000  1.600801  0.131598
12
Structure 31 - Rel. E. = 0.0 kcal/mol
C     -0.665637 -1.100001  0.000000
C      0.665633 -1.099999 -0.000000
H     -1.213150 -0.288630  0.468451
H     -1.213159 -1.911372 -0.468440
H      1.213155 -0.288628  0.468440
H      1.213146 -1.911370 -0.468451
C     -0.034345  0.993811  2.307728
O     -0.068404  2.178786  2.089701
H     -0.018532  0.476435  3.268674
O      0.000000  0.064487  1.320198
O      0.000000  0.609633  0.000000
H      0.000000  1.600801  0.131598
12
Structure 32 - Rel. E. = 0.0 kcal/mol
C     -0.665637 -1.100001  0.000000
C      0.665633 -1.099999 -0.000000
H     -1.213149 -1.099997 -0.936894
H     -1.213160 -1.099997  0.936888
H      1.213156 -1.100003 -0.936888
H      1.213145 -1.100003  0.936894
C     -0.034345  0.225454 -2.307728
O     -0.068404 -0.959521 -2.089701
H     -0.018532  0.742830 -3.268674
O      0.000000  1.154778 -1.320198
O      0.000000  0.609633  0.000000
H     -0.000000 -0.381536 -0.131598
12
Structure 33 - Rel. E. = 0.0 kcal/mol
C     -0.665637 -1.100001  0.000000
C      0.665633 -1.099999 -0.000000
H     -1.213148 -1.911378  0.468443
H     -1.213161 -0.288635 -0.468448
H      1.213157 -1.911365  0.468448
H      1.213144 -0.288622 -0.468443
C     -0.034345  0.225454 -2.307728
O     -0.068404 -0.959521 -2.089701
H     -0.018532  0.742830 -3.268674
O      0.000000  1.154778 -1.320198
O      0.000000  0.609633  0.000000
H     -0.000000 -0.381536 -0.131598
12
Structure 34 - Rel. E. = 0.0 kcal/mol
C     -0.665637 -1.100001  0.000000
C      0.665633 -1.099999 -0.000000
H     -1.213150 -0.288630  0.468451
H     -1.213159 -1.911372 -0.468440
H      1.213155 -0.288628  0.468440
H      1.213146 -1.911370 -0.468451
C     -0.034345  0.225454 -2.307728
O     -0.068404 -0.959521 -2.089701
H     -0.018532  0.742830 -3.268674
O      0.000000  1.154778 -1.320198
O      0.000000  0.609633  0.000000
H     -0.000000 -0.381536 -0.131598
12
Structure 35 - Rel. E. = 0.0 kcal/mol
C     -0.665637 -1.100001  0.000000
C      0.665633 -1.099999 -0.000000
H     -1.213150 -0.288625 -0.468443
H     -1.213159 -1.911367  0.468448
H      1.213155 -0.288633 -0.468448
H      1.213146 -1.911375  0.468443
C     -0.034345  0.225454 -2.307728
O     -0.068404 -0.959521 -2.089701
H     -0.018532  0.742830 -3.268674
O      0.000000  1.154778 -1.320198
O      0.000000  0.609633  0.000000
H     -0.000000 -0.381536 -0.131598
12
Structure 36 - Rel. E. = 0.0 kcal/mol
C     -0.665637 -1.100001  0.000000
C      0.665633 -1.099999 -0.000000
H     -1.213148 -1.911378  0.468443
H     -1.213161 -0.288635 -0.468448
H      1.213157 -1.911365  0.468448
H      1.213144 -0.288622 -0.468443
C     -0.034345  2.416094 -1.486573
O     -0.068404  1.634790 -2.403777
H     -0.018532  3.506986 -1.518985
O      0.000000  2.025531 -0.187989
O      0.000000  0.609633  0.000000
H     -0.000000  0.228015 -0.924176
12
Structure 37 - Rel. E. = 0.0 kcal/mol
C     -0.665637 -1.100001  0.000000
C      0.665633 -1.099999 -0.000000
H     -1.213149 -1.100006  0.936894
H     -1.213160 -1.100006 -0.936888
H      1.213156 -1.099994  0.936888
H      1.213145 -1.099994 -0.936894
C     -0.034345  2.416094 -1.486573
O     -0.068404  1.634790 -2.403777
H     -0.018532  3.506986 -1.518985
O      0.000000  2.025531 -0.187989
O      0.000000  0.609633  0.000000
H     -0.000000  0.228015 -0.924176
12
Structure 38 - Rel. E. = 0.0 kcal/mol
C     -0.665637 -1.100001  0.000000
C      0.665633 -1.099999 -0.000000
H     -1.213150 -0.288630  0.468451
H     -1.213159 -1.911372 -0.468440
H      1.213155 -0.288628  0.468440
H      1.213146 -1.911370 -0.468451
C     -0.034345  2.416094 -1.486573
O     -0.068404  1.634790 -2.403777
H     -0.018532  3.506986 -1.518985
O      0.000000  2.025531 -0.187989
O      0.000000  0.609633  0.000000
H     -0.000000  0.228015 -0.924176
12
Structure 39 - Rel. E. = 0.0 kcal/mol
C     -0.665637 -1.100001  0.000000
C      0.665633 -1.099999 -0.000000
H     -1.213149 -1.099997 -0.936894
H     -1.213160 -1.099997  0.936888
H      1.213156 -1.100003 -0.936888
H      1.213145 -1.100003  0.936894
C      0.034345  2.800273 -0.821155
O      0.068404  3.203943  0.314077
H      0.018532  3.373789 -1.749689
O     -0.000000  1.480385 -1.132209
O     -0.000000  0.609633 -0.000000
H     -0.000000  1.219184  0.792578
12
Structure 40 - Rel. E. = 0.0 kcal/mol
C     -0.665637 -1.100001  0.000000
C      0.665633 -1.099999 -0.000000
H     -1.213148 -1.911373 -0.468451
H     -1.213161 -0.288630  0.468440
H      1.213157 -1.911370 -0.468440
H      1.213144 -0.288627  0.468451
C      0.034345  2.800273 -0.821155
O      0.068404  3.203943  0.314077
H      0.018532  3.373789 -1.749689
O     -0.000000  1.480385 -1.132209
O     -0.000000  0.609633 -0.000000
H     -0.000000  1.219184  0.792578
12
Structure 41 - Rel. E. = 0.0 kcal/mol
C     -0.665637 -1.100001  0.000000
C      0.665633 -1.099999 -0.000000
H     -1.213148 -1.911378  0.468443
H     -1.213161 -0.288635 -0.468448
H      1.213157 -1.911365  0.468448
H      1.213144 -0.288622 -0.468443
C      0.034345  2.800273 -0.821155
O      0.068404  3.203943  0.314077
H      0.018532  3.373789 -1.749689
O     -0.000000  1.480385 -1.132209
O     -0.000000  0.609633 -0.000000
H     -0.000000  1.219184  0.792578
12
Structure 42 - Rel. E. = 0.0 kcal/mol
C     -0.665637 -1.100001  0.000000
C      0.665633 -1.099999 -0.000000
H     -1.213150 -0.288625 -0.468443
H     -1.213159 -1.911367  0.468448
H      1.213155 -0.288633 -0.468448
H      1.213146 -1.911375  0.468443
C      0.034345  2.800273 -0.821155
O      0.068404  3.203943  0.314077
H      0.018532  3.373789 -1.749689
O     -0.000000  1.480385 -1.132209
O     -0.000000  0.609633 -0.000000
H     -0.000000  1.219184  0.792578
12
Structure 43 - Rel. E. = 0.0 kcal/mol
C     -0.665637 -1.100001  0.000000
C      0.665633 -1.099999 -0.000000
H     -1.213148 -1.911378  0.468443
H     -1.213161 -0.288635 -0.468448
H      1.213157 -1.911365  0.468448
H      1.213144 -0.288622 -0.468443
C      0.034345  0.993811 -2.307728
O      0.068404  2.178786 -2.089701
H      0.018532  0.476435 -3.268674
O      0.000000  0.064487 -1.320198
O     -0.000000  0.609633  0.000000
H     -0.000000  1.600801 -0.131598
12
Structure 44 - Rel. E. = 0.0 kcal/mol
C     -0.665637 -1.100001  0.000000
C      0.665633 -1.099999 -0.000000
H     -1.213149 -1.100006  0.936894
H     -1.213160 -1.100006 -0.936888
H      1.213156 -1.099994  0.936888
H      1.213145 -1.099994 -0.936894
C      0.034345  0.993811 -2.307728
O      0.068404  2.178786 -2.089701
H      0.018532  0.476435 -3.268674
O      0.000000  0.064487 -1.320198
O     -0.000000  0.609633  0.000000
H     -0.000000  1.600801 -0.131598
12
Structure 45 - Rel. E. = 0.0 kcal/mol
C     -0.665637 -1.100001  0.000000
C      0.665633 -1.099999 -0.000000
H     -1.213150 -0.288625 -0.468443
H     -1.213159 -1.911367  0.468448
H      1.213155 -0.288633 -0.468448
H      1.213146 -1.911375  0.468443
C      0.034345  0.993811 -2.307728
O      0.068404  2.178786 -2.089701
H      0.018532  0.476435 -3.268674
O      0.000000  0.064487 -1.320198
O     -0.000000  0.609633  0.000000
H     -0.000000  1.600801 -0.131598
12
Structure 46 - Rel. E. = 0.0 kcal/mol
C     -0.665637 -1.100001  0.000000
C      0.665633 -1.099999 -0.000000
H     -1.213148 -1.911373 -0.468451
H     -1.213161 -0.288630  0.468440
H      1.213157 -1.911370 -0.468440
H      1.213144 -0.288627  0.468451
C      0.034345 -1.196829 -1.486573
O      0.068404 -0.415524 -2.403777
H      0.018532 -2.287721 -1.518985
O      0.000000 -0.806266 -0.187989
O     -0.000000  0.609633 -0.000000
H      0.000000  0.991250 -0.924176
12
Structure 47 - Rel. E. = 0.0 kcal/mol
C     -0.665637 -1.100001  0.000000
C      0.665633 -1.099999 -0.000000
H     -1.213149 -1.100006  0.936894
H     -1.213160 -1.100006 -0.936888
H      1.213156 -1.099994  0.936888
H      1.213145 -1.099994 -0.936894
C      0.034345 -1.196829 -1.486573
O      0.068404 -0.415524 -2.403777
H      0.018532 -2.287721 -1.518985
O      0.000000 -0.806266 -0.187989
O     -0.000000  0.609633 -0.000000
H      0.000000  0.991250 -0.924176
12
Structure 48 - Rel. E. = 0.0 kcal/mol
C     -0.665637 -1.100001  0.000000
C      0.665633 -1.099999 -0.000000
H     -1.213149 -1.100006  0.936894
H     -1.213160 -1.100006 -0.936888
H      1.213156 -1.099994  0.936888
H      1.213145 -1.099994 -0.936894
C      0.034345  0.225454  2.307728
O      0.068404 -0.959521  2.089701
H      0.018532  0.742830  3.268674
O     -0.000000  1.154778  1.320198
O     -0.000000  0.609633 -0.000000
H      0.000000 -0.381536  0.131598
12
Structure 49 - Rel. E. = 0.0 kcal/mol
C     -0.665637 -1.100001  0.000000
C      0.665633 -1.099999 -0.000000
H     -1.213150 -0.288625 -0.468443
H     -1.213159 -1.911367  0.468448
H      1.213155 -0.288633 -0.468448
H      1.213146 -1.911375  0.468443
C      0.034345  0.225454  2.307728
O      0.068404 -0.959521  2.089701
H      0.018532  0.742830  3.268674
O     -0.000000  1.154778  1.320198
O     -0.000000  0.609633 -0.000000
H      0.000000 -0.381536  0.131598
12
Structure 50 - Rel. E. = 0.0 kcal/mol
C     -0.665637 -1.100001  0.000000
C      0.665633 -1.099999 -0.000000
H     -1.213149 -1.099997 -0.936894
H     -1.213160 -1.099997  0.936888
H      1.213156 -1.100003 -0.936888
H      1.213145 -1.100003  0.936894
C      0.034345  2.416094  1.486573
O      0.068404  1.634790  2.403777
H      0.018532  3.506986  1.518985
O     -0.000000  2.025531  0.187989
O     -0.000000  0.609633  0.000000
H      0.000000  0.228015  0.924176
12
Structure 51 - Rel. E. = 0.0 kcal/mol
C     -0.665637 -1.100001  0.000000
C      0.665633 -1.099999 -0.000000
H     -1.213148 -1.911373 -0.468451
H     -1.213161 -0.288630  0.468440
H      1.213157 -1.911370 -0.468440
H      1.213144 -0.288627  0.468451
C      0.034345  2.416094  1.486573
O      0.068404  1.634790  2.403777
H      0.018532  3.506986  1.518985
O     -0.000000  2.025531  0.187989
O     -0.000000  0.609633  0.000000
H      0.000000  0.228015  0.924176
12
Structure 52 - Rel. E. = 0.0 kcal/mol
C     -0.665637 -1.100001  0.000000
C      0.665633 -1.099999 -0.000000
H     -1.213149 -1.100006  0.936894
H     -1.213160 -1.100006 -0.936888
H      1.213156 -1.099994  0.936888
H      1.213145 -1.099994 -0.936894
C      0.034345  2.416094  1.486573
O      0.068404  1.634790  2.403777
H      0.018532  3.506986  1.518985
O     -0.000000  2.025531  0.187989
O     -0.000000  0.609633  0.000000
H      0.000000  0.228015  0.924176
