31
TS candidate 4
C          0.00003       -2.02587       -0.86887
C          0.00007       -0.76733       -1.47853
C          0.00002        0.35623       -0.64340
C         -0.00002        0.25983        0.74851
C         -0.00006       -1.01835        1.33930
C          0.00002       -2.15243        0.51882
C         -0.00005        1.58691        1.26022
C         -0.00002        2.45035        0.18853
N          0.00003        1.69714       -0.95569
H          0.00008       -2.91957       -1.48874
H          0.00004       -0.67274       -2.55921
H         -0.00009       -1.12486        2.41982
H          0.00002       -3.14092        0.97123
H         -0.00002        1.87539        2.30306
H         -0.00006        3.53093        0.14157
H         -0.00000        2.06528       -1.89661
C          2.04540        1.33662       -1.12499
C          2.00056        2.38811       -0.01052
C          1.99995        1.58691        1.26022
C          2.00049        0.26312        1.08766
C          2.01101        0.04330       -0.36338
O          2.00284       -1.07088       -0.86322
C          0.76928        3.28139       -0.10984
H          2.98051        1.39952       -1.68996
H          1.18983        1.39435       -1.80396
H          2.90007        3.01375       -0.05167
H          2.00039        2.05538        2.23713
H          1.99847       -0.52422        1.81988
H         -0.15842        2.69970       -0.06206
H          0.77150        3.83560       -1.05445
H          0.74935        4.01062        0.70745
