31
TS candidate 6
C          0.00003       -2.02587       -0.86887
C          0.00007       -0.76733       -1.47853
C          0.00002        0.35623       -0.64340
C         -0.00002        0.25983        0.74851
C         -0.00006       -1.01835        1.33930
C          0.00002       -2.15243        0.51882
C         -0.00005        1.58691        1.26022
C         -0.00002        2.45035        0.18853
N          0.00003        1.69714       -0.95569
H          0.00008       -2.91957       -1.48874
H          0.00004       -0.67274       -2.55921
H         -0.00009       -1.12486        2.41982
H          0.00002       -3.14092        0.97123
H         -0.00002        1.87539        2.30306
H         -0.00006        3.53093        0.14157
H         -0.00000        2.06528       -1.89661
C          1.95451        2.74083       -0.84224
C          1.99935        1.33995       -0.22157
C          1.99995        1.58691        1.26022
C          1.99942        2.87432        1.61345
C          1.98890        3.63860        0.36057
O          1.99707        4.85940        0.33090
C          3.23063        0.55473       -0.65887
H          1.01940        2.90149       -1.38753
H          2.81008        2.95038       -1.49064
H          1.09984        0.77900       -0.50166
H          1.99952        0.77686        1.97969
H          2.00144        3.31691        2.59333
H          4.15833        1.07260       -0.38969
H          3.22841        0.40930       -1.74436
H          3.25056       -0.43398       -0.18751
