31
GENERATION 0 - score 0.5484373305675151
C    2.691954936573371e-06 2.025870280946539 -0.8688748961057888
C    -6.0916458533902956e-05 0.7673299869100474 -1.4785286783793925
C    -2.8518157473976513e-05 -0.3562322021497677 -0.6434018399497637
C    1.1504897780425377e-05 -0.25983540005743455 0.7485107381040905
C    8.594254101723653e-05 1.018345160943442 1.3393021293231249
C    2.2269175143113662e-05 2.152426564191119 0.5188192369033733
C    1.740506138759451e-05 -1.58690939519146 1.2602174718923076
C    -2.8688681181526787e-05 -2.450352362830834 0.1885261452923955
N    -6.247194014832869e-05 -1.6971365977215118 -0.9556851901039422
H    -2.5109855349716992e-05 2.919569533220078 -1.488741612193028
H    -3.545523038406273e-05 0.6727409832029616 -2.5592126144723775
H    0.00011199954707125093 1.124861470045501 2.4198225665274875
H    3.755948002978626e-05 3.1409195828031593 0.9712314957132604
H    -8.779727098852039e-06 -1.8753924185815252 2.3030596049738605
H    -1.8782950967077827e-06 -3.5309282789092187 0.14156819737552934
H    -3.7554312099119525e-05 -2.0652769068210914 -1.8966127549011358
C    3.8654518868222794 -0.5241524131871761 -0.8579192641910945
C    3.228401428163482 -1.8809412346442138 -1.1788823260717998
C    2.175225164749227 -1.5669857530548765 -2.2031910557821326
C    2.060153804291772 -0.2727708398463311 -2.5096227780810283
C    3.0646289791531496 0.42652623708112714 -1.699724184868324
O    3.2153741419115707 1.637981438937668 -1.7349011631306288
C    2.628332200690763 -2.542741928075407 0.056450727972447545
H    4.912541041960365 -0.49463492367935546 -1.1747034004816679
H    3.782836669347776 -0.25040704936492775 0.19774561711711014
H    3.9784612844527327 -2.5514602286330694 -1.6146866177940367
H    1.561945246983925 -2.3378347915150797 -2.654254202548486
H    1.3935313124076925 0.2121993493996377 -3.199845154461996
H    2.162450210465546 -3.5002053862209204 -0.20140750342578584
H    3.4049110171740202 -2.7377253261881433 0.8036493068320922
H    1.8623618743686157 -1.9123767172228012 0.522323951221749
