24
Title
C          1.75210       -0.60600        0.01780
C          0.36610       -0.33950        0.05280
C         -0.09130        0.98680       -0.12270
C          0.83530        2.03320       -0.23820
C          2.20030        1.77510       -0.18890
C          2.65190        0.46560       -0.04470
C         -0.62680       -1.47200        0.21410
C         -1.56140        1.33280       -0.12140
C         -2.04640       -1.01890        0.54980
C         -2.46600        0.12790       -0.35560
N          2.26310       -1.89430        0.25470
H          0.49230        3.05960       -0.34770
H          2.91310        2.59240       -0.25270
H          3.72170        0.28390        0.01410
H         -0.29730       -2.15070        1.00960
H         -0.64600       -2.03980       -0.72490
H         -1.80290        1.78490        0.84900
H         -1.76790        2.08160       -0.89560
H         -2.09740       -0.69800        1.59810
H         -2.73730       -1.86220        0.43910
H         -3.50770        0.40490       -0.15920
H         -2.40820       -0.18840       -1.40470
H          3.21120       -2.01970       -0.08520
H          1.64970       -2.63900       -0.05760
