46
Hypermolecule originated from Resources/SN2/flex_ensemble
D     -0.567206 -0.455571 0.240365
D     0.254086 0.420043 -1.359254
D     1.586525 -0.365244 1.399169
D     2.410743 0.508045 -0.200216
C     -2.359152 -0.164007 -1.766176
O     -3.072534 -0.904541 -2.444645
O     -2.936592 -0.013247 -2.423191
C     -1.018823 -0.666536 -1.354594
C     -0.983862 0.081416 -1.128015
C     -0.15656 -0.017764 -0.559445
C     1.131311 -0.571204 -0.198251
C     0.974978 0.393481 0.53793 
C     1.998634 0.071401 0.599477
C     -2.83601 1.210523 -1.347328
C     -3.0967  1.465859 -0.649251
C     -3.514744 1.163917 0.007691
C     3.357456 -0.408811 1.037639
C     3.804394 -1.771171 0.524381
C     3.631609 -1.62505 1.656212
H     -0.783926 -1.646803 -1.760452
H     -0.567122 -0.663987 -1.960143
H     -0.395718 0.957821 -0.146028
H     -0.865313 1.12631  0.426168
H     1.379618 -1.549503 -0.604205
H     1.020946 1.005258 1.412762
H     1.729006 1.050309 0.995112
H     2.135403 -0.906488 -0.568288
H     -3.544008 1.563122 -2.106921
H     -3.701737 2.127319 -1.372863
H     -2.007821 1.925315 -1.355989
H     -2.396423 2.158547 -0.105129
H     -3.89461 2.153966 0.27789 
H     -3.965076 -0.303855 0.322482
H     -2.822467 0.838635 0.790526
H     -5.069305 1.113338 0.051671
H     -4.357321 0.464245 -0.000351
H     -3.78256 1.143946 1.349046
H     3.371338 -0.428659 2.13398 
H     3.330237 0.459425 1.995072
H     4.096488 0.339439 0.726984
H     4.179008 0.118892 0.466206
H     4.801804 -2.007529 0.909351
H     3.225905 -1.726408 2.67301 
H     3.123817 -2.563499 0.85289 
H     3.856725 -1.787129 -0.569303
H     4.727728 -1.782576 1.647228
