24
Title
C          2.54710       -0.58290       -0.96400
O          3.26420       -1.16690       -1.77610
C          1.07600       -0.59070       -1.20330
C          0.17020       -0.00050       -0.41090
C         -1.24780       -0.04030       -0.69210
C         -2.16250        0.54640        0.09460
C          3.10130        0.13410        0.25470
C          4.61590        0.03980        0.33990
C         -3.63860        0.52140       -0.18320
C         -4.40020       -0.18570        0.92700
H          0.78280       -1.12960       -2.09980
H          0.47160        0.53670        0.48440
H         -1.57000       -0.57480       -1.58450
H         -1.85340        1.08750        0.98690
H          2.66680       -0.31470        1.15420
H          2.81390        1.18950        0.20230
H          4.98080        0.56580        1.22750
H          5.08810        0.48710       -0.54110
H          4.94220       -1.00360        0.40230
H         -3.85140        0.02680       -1.13810
H         -3.99710        1.55330       -0.27130
H         -4.07890       -1.22820        1.02500
H         -4.24760        0.31040        1.89160
H         -5.47340       -0.18110        0.71140
24
Title
C         -2.44210       -0.00880       -0.32060
O         -2.54840        0.35220       -1.48950
C         -1.11370       -0.05520        0.35830
C         -0.00050        0.29860       -0.29890
C          1.31060        0.27270        0.30840
C          2.42240        0.62710       -0.35350
C         -3.62810       -0.43300        0.52580
C         -4.94050       -0.35840       -0.23510
C          3.79560        0.61540        0.25390
C          4.71430       -0.35650       -0.47000
H         -1.09910       -0.38390        1.39020
H         -0.06580        0.62270       -1.33740
H          1.38180       -0.05080        1.34480
H          2.35890        0.95620       -1.38940
H         -3.46330       -1.46210        0.86290
H         -3.68040        0.22170        1.40250
H         -5.13850        0.66240       -0.57850
H         -5.77080       -0.67080        0.40560
H         -4.92270       -1.01050       -1.11470
H          4.21490        1.62620        0.19450
H          3.75400        0.34880        1.31640
H          4.81670       -0.09300       -1.52820
H          5.71210       -0.33970       -0.02010
H          4.33260       -1.38140       -0.40920
