15
Title
C          0.61390       -0.98870        0.47580
C         -0.44830       -0.35290       -0.42820
C          0.12860        0.98320       -0.80100
C          1.31450        1.25430       -0.25120
C          1.66140        0.08320        0.56250
O          2.69190        0.01290        1.21420
C         -1.79200       -0.20560        0.27670
H          1.04570       -1.88040        0.01100
H          0.23930       -1.22800        1.47510
H         -0.58290       -0.96120       -1.33040
H         -0.38440        1.66710       -1.46650
H          1.93350        2.12770       -0.35120
H         -2.52810        0.26840       -0.38190
H         -2.18350       -1.18640        0.56680
H         -1.70980        0.40630        1.18220
