9
Hypermolecule originated from Resources/SN2/MeOH_ensemble
D     1.229189 -1.233992 -0.236541
D     1.229183 -0.455253 1.171082
D     2.035016 1.109291 -0.61369
C     -0.365703 -0.055547 0.030724
O     1.005748 -0.362872 0.200751
H     -0.593434 0.021299 -1.035246
H     -0.593445 0.888379 0.531948
H     -0.966322 -0.854131 0.472575
H     1.513155 0.362872 -0.200751
