8
Hypermolecule originated from Resources/SN2/MeOH_ensemble
D     0.011972 -1.344659 -1.131964
D     -0.099324 -1.700689 0.432866
C     -0.268075 0.253787 0.038671
O     0.264923 -1.032767 -0.216137
H     0.126144 0.963881 -0.692367
H     0.002269 0.567519 1.049895
H     -1.356345 0.211269 -0.048357
H     1.231085 -0.96369 -0.131704
