25
test_berny_out.xyz
C     -1.533564 -1.271701 -0.216115
H     -1.197832 -1.219842 -1.257878
C     -0.747997 -1.857363  0.754729
H     -1.199704 -2.201632  1.685117
C      0.650383 -1.881579  0.642695
H      1.229811 -2.265581  1.485967
C      1.304170 -1.284630 -0.418807
H      0.866978 -1.249826 -1.412086
H      2.385756 -1.220108 -0.445394
C     -2.991397 -1.064905 -0.010902
H     -3.372358 -0.202253 -0.588055
H     -3.563623 -1.942494 -0.355978
H     -3.264186 -0.896360  1.039060
O      0.120681  1.427018 -2.122694
C      1.249268  1.159077 -1.349635
C     -1.042107  1.238340 -1.338340
C      0.774575  0.694650  0.008082
O      2.340762  1.309523 -1.802719
C     -0.619644  0.772341 -0.009149
O     -2.104441  1.463199 -1.831687
H     -1.260241  0.871813  0.848312
C      1.633970  0.934569  1.191164
H      2.696474  0.718049  0.996576
H      1.582931  1.992438  1.504567
H      1.327624  0.333556  2.060028
