test_berny_out.xyz
 OpenBabel04282111363D

 25 24  0  0  1  0  0  0  0  0999 V2000
   -1.5336   -1.2717   -0.2161 C   0  0  0  0  0  3  0  0  0  0  0  0
   -1.1978   -1.2198   -1.2579 H   0  0  0  0  0  0  0  0  0  0  0  0
   -0.7480   -1.8574    0.7547 C   0  0  0  0  0  0  0  0  0  0  0  0
   -1.1997   -2.2016    1.6851 H   0  0  0  0  0  0  0  0  0  0  0  0
    0.6504   -1.8816    0.6427 C   0  0  0  0  0  0  0  0  0  0  0  0
    1.2298   -2.2656    1.4860 H   0  0  0  0  0  0  0  0  0  0  0  0
    1.3042   -1.2846   -0.4188 C   0  0  0  0  0  3  0  0  0  0  0  0
    0.8670   -1.2498   -1.4121 H   0  0  0  0  0  0  0  0  0  0  0  0
    2.3858   -1.2201   -0.4454 H   0  0  0  0  0  0  0  0  0  0  0  0
   -2.9914   -1.0649   -0.0109 C   0  0  0  0  0  0  0  0  0  0  0  0
   -3.3724   -0.2023   -0.5881 H   0  0  0  0  0  0  0  0  0  0  0  0
   -3.5636   -1.9425   -0.3560 H   0  0  0  0  0  0  0  0  0  0  0  0
   -3.2642   -0.8964    1.0391 H   0  0  0  0  0  0  0  0  0  0  0  0
    0.1207    1.4270   -2.1227 O   0  0  0  0  0  0  0  0  0  0  0  0
    1.2493    1.1591   -1.3496 C   0  0  0  0  0  0  0  0  0  0  0  0
   -1.0421    1.2383   -1.3383 C   0  0  0  0  0  0  0  0  0  0  0  0
    0.7746    0.6946    0.0081 C   0  0  2  0  0  3  0  0  0  0  0  0
    2.3408    1.3095   -1.8027 O   0  0  0  0  0  0  0  0  0  0  0  0
   -0.6196    0.7723   -0.0091 C   0  0  0  0  0  3  0  0  0  0  0  0
   -2.1044    1.4632   -1.8317 O   0  0  0  0  0  0  0  0  0  0  0  0
   -1.2602    0.8718    0.8483 H   0  0  0  0  0  0  0  0  0  0  0  0
    1.6340    0.9346    1.1912 C   0  0  0  0  0  0  0  0  0  0  0  0
    2.6965    0.7180    0.9966 H   0  0  0  0  0  0  0  0  0  0  0  0
    1.5829    1.9924    1.5046 H   0  0  0  0  0  0  0  0  0  0  0  0
    1.3276    0.3336    2.0600 H   0  0  0  0  0  0  0  0  0  0  0  0
  1 10  1  0  0  0  0
  1  3  1  0  0  0  0
  2  1  1  0  0  0  0
  3  4  1  0  0  0  0
  5  3  2  0  0  0  0
  5  6  1  0  0  0  0
  7  5  1  0  0  0  0
  8  7  1  0  0  0  0
  9  7  1  0  0  0  0
 10 13  1  0  0  0  0
 11 10  1  0  0  0  0
 12 10  1  0  0  0  0
 14 15  1  0  0  0  0
 14 16  1  0  0  0  0
 15 17  1  0  0  0  0
 16 19  1  0  0  0  0
 17 22  1  1  0  0  0
 18 15  2  0  0  0  0
 19 17  1  0  0  0  0
 19 21  1  0  0  0  0
 20 16  2  0  0  0  0
 22 24  1  0  0  0  0
 22 25  1  0  0  0  0
 23 22  1  0  0  0  0
M  END
$$$$
