98
TS candidate 0 - Rel. E. = 0.0 kcal/mol
C     -1.096446 -2.635878  0.474489
C     -0.556795 -1.231855  0.606270
C      0.866774 -1.067655  0.334973
C      1.681763 -2.034671 -0.137320
C      1.109856 -3.397332 -0.471307
C     -0.407871 -3.390782 -0.655901
C     -1.297279 -0.162874  0.959361
C     -2.749133 -0.140450  1.318836
N      3.039378 -1.784776 -0.302318
C      4.106849 -2.543860 -0.942165
C      3.950980 -2.558844 -2.458212
C      4.294774 -3.933505 -0.347625
H     -0.939298 -3.168519  1.421074
H     -2.172601 -2.639206  0.274190
H      1.286476 -0.088480  0.554147
H      1.539226 -3.788227 -1.396694
H      1.372921 -4.093179  0.334946
H     -0.658791 -2.924043 -1.617778
H     -0.778444 -4.421522 -0.698116
H     -0.819044  0.814427  1.015467
H     -3.184900 -1.134761  1.437249
H     -3.313948  0.397629  0.551626
H     -2.880409  0.386195  2.269805
H      3.290984 -0.812069 -0.137554
H      5.033238 -1.994337 -0.728522
H      3.857637 -1.539341 -2.848547
H      3.067962 -3.115945 -2.781796
H      4.824924 -3.020460 -2.929981
H      5.247782 -4.360520 -0.679425
H      3.511861 -4.631482 -0.654132
H      4.307238 -3.895706  0.746829
N      4.251362 -0.037055  3.338994
C      2.920373  0.189081  2.802199
C      2.951367  1.382343  1.833769
O      3.717704  2.335805  1.873107
C      1.934780  0.400514  3.936928
C      0.120178  0.733258  6.057022
C      1.939011  1.576096  4.707330
C      1.014610 -0.609945  4.258210
C      0.111401 -0.442141  5.309419
C      1.034141  1.740994  5.757601
O      1.982580  1.333389  0.893138
C      5.196211 -0.688498  2.611791
O      6.391441 -0.545363  3.224752
O      4.981741 -1.282317  1.567910
C      7.591775 -1.126395  2.653731
C      7.909283 -0.514227  1.284942
C      8.712971 -0.746528  3.632960
C      7.495091 -2.654681  2.589528
H      4.610845  0.588337  4.045146
H      2.640846 -0.692546  2.211293
H     -0.583210  0.862213  6.875524
H      2.646844  2.376317  4.497145
H      0.996013 -1.539026  3.691230
H     -0.598102 -1.231119  5.546308
H      1.043787  2.656342  6.344191
H      2.122550  2.145181  0.362494
H      8.896141 -0.827544  0.927617
H      7.887640  0.580303  1.334217
H      7.178199 -0.808259  0.525778
H      9.685108 -1.132490  3.308595
H      8.789172  0.342484  3.734585
H      8.503033 -1.136161  4.635986
H      8.455673 -3.103476  2.314441
H      6.756411 -2.987276  1.854048
H      7.182629 -3.065413  3.556285
C      0.778300  0.230521 -0.826576
C      1.840362  0.705494 -0.169274
H      0.429851 -0.784525 -0.943220
H      2.597252  0.184508  0.397384
C      1.900884  2.217584 -0.303223
O      2.700042  2.988456  0.150595
C      0.014266  1.373410 -1.471942
O     -0.985095  1.345757 -2.133114
C      0.421630  3.897395 -1.553445
C     -0.277917  4.823596 -0.753453
C      0.854559  4.216494 -2.856003
C     -0.473603  6.103453 -1.310321
C      0.615373  5.483564 -3.379862
H      1.378693  3.470015 -3.452192
C     -0.045751  6.433626 -2.595152
H     -0.974943  6.874109 -0.718740
H      0.944822  5.732447 -4.386903
H     -0.225889  7.433496 -2.987223
C     -0.777395  4.560936  0.675054
C      0.400014  4.833298  1.629067
H      1.291787  4.252045  1.359517
H      0.699226  5.886996  1.605420
H      0.143230  4.586045  2.663164
C     -1.944558  5.510259  1.033444
H     -2.797962  5.360272  0.363076
H     -2.293084  5.332362  2.056383
H     -1.654103  6.565386  0.978097
C     -1.306375  3.125802  0.861586
H     -1.863215  2.787717 -0.020795
H     -0.508241  2.409670  1.067818
H     -1.993310  3.064466  1.714164
N      0.759522  2.557889 -1.114373
98
TS candidate 1 - Rel. E. = 0.0 kcal/mol
C     -1.096446 -2.635878  0.474489
C     -0.556795 -1.231855  0.606270
C      0.866774 -1.067655  0.334973
C      1.681763 -2.034671 -0.137320
C      1.109856 -3.397332 -0.471307
C     -0.407871 -3.390782 -0.655901
C     -1.297279 -0.162874  0.959361
C     -2.749133 -0.140450  1.318836
N      3.039378 -1.784776 -0.302318
C      4.106849 -2.543860 -0.942165
C      3.950980 -2.558844 -2.458212
C      4.294774 -3.933505 -0.347625
H     -0.939298 -3.168519  1.421074
H     -2.172601 -2.639206  0.274190
H      1.286476 -0.088480  0.554147
H      1.539226 -3.788227 -1.396694
H      1.372921 -4.093179  0.334946
H     -0.658791 -2.924043 -1.617778
H     -0.778444 -4.421522 -0.698116
H     -0.819044  0.814427  1.015467
H     -3.184900 -1.134761  1.437249
H     -3.313948  0.397629  0.551626
H     -2.880409  0.386195  2.269805
H      3.290984 -0.812069 -0.137554
H      5.033238 -1.994337 -0.728522
H      3.857637 -1.539341 -2.848547
H      3.067962 -3.115945 -2.781796
H      4.824924 -3.020460 -2.929981
H      5.247782 -4.360520 -0.679425
H      3.511861 -4.631482 -0.654132
H      4.307238 -3.895706  0.746829
N      3.867963 -0.248080  3.067341
C      3.053574  0.932578  3.306050
C      2.714326  1.692236  2.006435
O      2.112768  2.753456  1.921327
C      1.802878  0.532092  4.069373
C     -0.471695 -0.239700  5.527486
C      0.752467 -0.162497  3.445194
C      1.699139  0.818175  5.440065
C      0.566817  0.437520  6.162452
C     -0.378742 -0.541221  4.170629
O      3.106323  1.064540  0.872264
C      5.210879 -0.144053  2.888710
O      5.681020 -1.326216  2.433199
O      5.864217  0.865598  3.094489
C      7.091208 -1.499043  2.139768
C      7.541461 -0.569790  1.007007
C      7.214035 -2.953177  1.659198
C      7.948204 -1.325645  3.398526
H      3.444176 -1.060325  2.645358
H      3.647641  1.636148  3.903588
H     -1.353057 -0.534400  6.091256
H      0.803388 -0.413884  2.387855
H      2.502748  1.339789  5.956673
H      0.496572  0.668925  7.222279
H     -1.188588 -1.072317  3.676900
H      2.840784  1.686486  0.162484
H      7.541269  0.480133  1.314628
H      8.555840 -0.812352  0.672208
H      6.863619 -0.645774  0.149302
H      6.865000 -3.649317  2.430905
H      6.584340 -3.127111  0.778787
H      8.246735 -3.211205  1.402260
H      7.556850 -1.933487  4.222038
H      8.988494 -1.615748  3.215247
H      7.955004 -0.289288  3.749359
C      0.778300  0.230521 -0.826576
C      1.840362  0.705494 -0.169274
H      0.429851 -0.784525 -0.943220
H      2.597252  0.184508  0.397384
C      1.900884  2.217584 -0.303223
O      2.700042  2.988456  0.150595
C      0.014266  1.373410 -1.471942
O     -0.985095  1.345757 -2.133114
C      0.421630  3.897395 -1.553445
C     -0.277917  4.823596 -0.753453
C      0.854559  4.216494 -2.856003
C     -0.473603  6.103453 -1.310321
C      0.615373  5.483564 -3.379862
H      1.378693  3.470015 -3.452192
C     -0.045751  6.433626 -2.595152
H     -0.974943  6.874109 -0.718740
H      0.944822  5.732447 -4.386903
H     -0.225889  7.433496 -2.987223
C     -0.777395  4.560936  0.675054
C      0.400014  4.833298  1.629067
H      1.291787  4.252045  1.359517
H      0.699226  5.886996  1.605420
H      0.143230  4.586045  2.663164
C     -1.944558  5.510259  1.033444
H     -2.797962  5.360272  0.363076
H     -2.293084  5.332362  2.056383
H     -1.654103  6.565386  0.978097
C     -1.306375  3.125802  0.861586
H     -1.863215  2.787717 -0.020795
H     -0.508241  2.409670  1.067818
H     -1.993310  3.064466  1.714164
N      0.759522  2.557889 -1.114373
98
TS candidate 2 - Rel. E. = 0.0 kcal/mol
C     -1.096446  0.641798  2.239685
C     -0.556795  0.053912  0.957875
C      0.866774 -0.263138  0.951322
C      1.681763 -0.188647  2.024930
C      1.109856  0.203442  3.372021
C     -0.407871  0.040304  3.458647
C     -1.297279 -0.174792 -0.144435
C     -2.749133  0.125310 -0.343592
N      3.039378 -0.456487  1.891013
C      4.106849 -0.631069  2.868322
C      3.950980 -1.936512  3.639322
C      4.294774  0.578640  3.774520
H     -0.939298  1.727886  2.227674
H     -2.172601  0.469999  2.342717
H      1.286476 -0.562915 -0.006254
H      1.539226 -0.402519  4.173241
H      1.372921  1.249601  3.571516
H     -0.658791 -1.026075  3.535377
H     -0.778444  0.519115  4.372401
H     -0.819044 -0.614853 -1.018855
H     -3.184900  0.725014  0.458300
H     -3.313948 -0.808152 -0.425977
H     -2.880409  0.685551 -1.275164
H      3.290984 -0.800151  0.966242
H      5.033238 -0.720810  2.285600
H      3.857637 -2.784304  2.951575
H      3.067962 -1.938193  4.283578
H      4.824924 -2.114268  4.274978
H      5.247782  0.504801  4.310226
H      3.511861  0.662186  4.532240
H      4.307238  1.507566  3.194558
N      3.445935  0.132007 -2.299119
C      3.640409  0.037942 -0.862405
C      3.165927  1.337306 -0.192171
O      3.152144  2.454518 -0.691727
C      5.096324 -0.263106 -0.556809
C      7.786001 -0.875830 -0.019684
C      6.101953  0.702278 -0.736454
C      5.465742 -1.544256 -0.117321
C      6.801736 -1.846469  0.152447
C      7.437000  0.397008 -0.465326
O      2.776996  1.166638  1.090536
C      2.220520 -0.063889 -2.852225
O      2.261247  0.321582 -4.146264
O      1.250354 -0.499084 -2.254152
C      1.077868  0.240900 -4.981471
C     -0.036300  1.153583 -4.457274
C      1.532750  0.760630 -6.353781
C      0.604791 -1.208380 -5.139315
H      4.076050  0.700592 -2.845617
H      2.995781 -0.767048 -0.486883
H      8.825785 -1.112773  0.190167
H      5.856022  1.702698 -1.088925
H      4.713135 -2.319265  0.016642
H      7.074420 -2.841612  0.494981
H      8.205996  1.152966 -0.603952
H      2.510933  2.063658  1.381647
H     -0.864599  1.221275 -5.170769
H      0.344991  2.163535 -4.268846
H     -0.449141  0.792750 -3.510368
H      0.716906  0.749972 -7.084203
H      1.914017  1.785606 -6.275437
H      2.357048  0.153906 -6.746678
H     -0.183188 -1.290144 -5.895760
H      0.203712 -1.611838 -4.204673
H      1.436758 -1.859332 -5.430936
C      0.778300  0.230521 -0.826576
C      1.840362  0.705494 -0.169274
H      0.429851 -0.784525 -0.943220
H      2.597252  0.184508  0.397384
C      1.900884  2.217584 -0.303223
O      2.700042  2.988456  0.150595
C      0.014266  1.373410 -1.471942
O     -0.985095  1.345757 -2.133114
C      0.421630  3.897395 -1.553445
C     -0.277917  4.823596 -0.753453
C      0.854559  4.216494 -2.856003
C     -0.473603  6.103453 -1.310321
C      0.615373  5.483564 -3.379862
H      1.378693  3.470015 -3.452192
C     -0.045751  6.433626 -2.595152
H     -0.974943  6.874109 -0.718740
H      0.944822  5.732447 -4.386903
H     -0.225889  7.433496 -2.987223
C     -0.777395  4.560936  0.675054
C      0.400014  4.833298  1.629067
H      1.291787  4.252045  1.359517
H      0.699226  5.886996  1.605420
H      0.143230  4.586045  2.663164
C     -1.944558  5.510259  1.033444
H     -2.797962  5.360272  0.363076
H     -2.293084  5.332362  2.056383
H     -1.654103  6.565386  0.978097
C     -1.306375  3.125802  0.861586
H     -1.863215  2.787717 -0.020795
H     -0.508241  2.409670  1.067818
H     -1.993310  3.064466  1.714164
N      0.759522  2.557889 -1.114373
98
TS candidate 3 - Rel. E. = 0.0 kcal/mol
C     -1.400471 -2.361986  0.140115
C     -0.647284 -1.115064  0.540405
C      0.744832 -1.047383  0.111809
C      1.415482 -2.057628 -0.477518
C      0.742184 -3.401455 -0.684403
C     -0.502366 -3.593236  0.181684
C     -1.181674 -0.093391  1.237722
C     -2.591383  0.040950  1.719725
N      2.723697 -1.890857 -0.910645
C      3.650255 -2.906374 -1.389964
C      4.621005 -2.259410 -2.376128
C      4.407124 -3.509373 -0.210247
H     -2.255171 -2.547684  0.798125
H     -1.794265 -2.229449 -0.875631
H      1.254883 -0.099915  0.268968
H      1.430722 -4.220344 -0.448712
H      0.472907 -3.497095 -1.743779
H     -0.199882 -3.792499  1.218473
H     -1.057433 -4.474254 -0.160471
H     -0.552005  0.759649  1.488260
H     -2.988442  1.015062  1.416051
H     -3.263854 -0.720983  1.319941
H     -2.617408 -0.011006  2.812334
H      3.156760 -1.018881 -0.615406
H      3.113840 -3.698437 -1.924284
H      5.325993 -2.998542 -2.770883
H      4.079502 -1.821984 -3.222164
H      5.198261 -1.456804 -1.903197
H      4.966322 -2.743128  0.338357
H      5.117216 -4.269976 -0.551222
H      3.720125 -3.984046  0.498293
N      5.752437 -1.126681  0.831805
C      4.481447 -0.695721  1.388289
C      4.126778  0.697452  0.844256
O      4.913203  1.564064  0.485887
C      4.547804 -0.716362  2.904494
C      4.678098 -0.816721  5.710069
C      5.302654  0.227476  3.622059
C      3.872154 -1.718971  3.618101
C      3.934828 -1.765802  5.011968
C      5.362889  0.178167  5.015972
O      2.798025  0.941917  0.824691
C      5.828360 -1.630617 -0.427650
O      7.128590 -1.715646 -0.783959
O      4.865895 -1.931510 -1.114259
C      7.507294 -2.205550 -2.095844
C      6.976959 -1.291054 -3.205612
C      9.042533 -2.148774 -2.105255
C      7.070194 -3.661046 -2.294848
H      6.607212 -0.719557  1.181954
H      3.705516 -1.383982  1.029405
H      4.726447 -0.854823  6.795214
H      5.851343  1.011671  3.102890
H      3.291758 -2.474451  3.091419
H      3.404709 -2.545694  5.553022
H      5.946623  0.916008  5.560848
H      2.726834  1.850721  0.465263
H      7.396309 -1.562922 -4.180277
H      7.225956 -0.244120 -2.998680
H      5.887447 -1.342762 -3.292561
H      9.457191 -2.498215 -3.056665
H      9.395720 -1.126002 -1.928405
H      9.460237 -2.763258 -1.299102
H      7.495183 -4.082832 -3.212065
H      5.982382 -3.755488 -2.365168
H      7.385117 -4.280830 -1.447711
C      0.472037  0.621795 -0.965709
C      1.637939  1.211021 -0.684452
H      0.257690 -0.400660 -1.237703
H      2.636678  0.801716 -0.664485
C      1.413587  2.677702 -0.358054
O      2.213135  3.518616 -0.054024
C     -0.657940  1.630833 -0.858760
O     -1.834462  1.479801 -1.030862
C     -0.698646  4.130187 -0.315930
C     -1.071725  4.646180  0.941752
C     -0.968874  4.821267 -1.513967
C     -1.683067  5.916087  0.936555
C     -1.601150  6.060609 -1.477059
H     -0.680384  4.384577 -2.469720
C     -1.951098  6.612480 -0.240755
H     -1.957195  6.382541  1.886552
H     -1.814981  6.595556 -2.400488
H     -2.432634  7.588234 -0.196779
C     -0.809387  3.963833  2.292560
C      0.623717  4.330204  2.719876
H      1.361593  4.077236  1.947014
H      0.724495  5.405687  2.903040
H      0.913410  3.810337  3.637614
C     -1.799376  4.471100  3.367051
H     -2.835078  4.245680  3.090116
H     -1.604970  3.994491  4.333783
H     -1.721146  5.552321  3.526930
C     -0.981383  2.434095  2.225146
H     -1.829138  2.155377  1.587497
H     -0.085779  1.928576  1.858079
H     -1.178501  2.013439  3.218485
N     -0.009004  2.866873 -0.488164
98
TS candidate 4 - Rel. E. = 0.0 kcal/mol
C     -0.419346 -2.635878  0.474489
C      0.120305 -1.231855  0.606270
C      1.543874 -1.067655  0.334973
C      2.358863 -2.034671 -0.137320
C      1.786956 -3.397332 -0.471307
C      0.269229 -3.390782 -0.655901
C     -0.620179 -0.162874  0.959361
C     -2.072033 -0.140450  1.318836
N      3.716478 -1.784776 -0.302318
C      4.783949 -2.543860 -0.942165
C      4.628080 -2.558844 -2.458212
C      4.971874 -3.933505 -0.347625
H     -0.262198 -3.168519  1.421074
H     -1.495500 -2.639206  0.274190
H      1.963576 -0.088480  0.554147
H      2.216326 -3.788227 -1.396694
H      2.050021 -4.093179  0.334946
H      0.018309 -2.924043 -1.617778
H     -0.101344 -4.421522 -0.698116
H     -0.141944  0.814427  1.015467
H     -2.507800 -1.134761  1.437249
H     -2.636848  0.397629  0.551626
H     -2.203309  0.386195  2.269805
H      3.968085 -0.812069 -0.137554
H      5.710338 -1.994337 -0.728522
H      4.534737 -1.539341 -2.848547
H      3.745062 -3.115945 -2.781796
H      5.502025 -3.020460 -2.929981
H      5.924882 -4.360520 -0.679425
H      4.188961 -4.631482 -0.654132
H      4.984338 -3.895706  0.746829
N      5.824458  0.351337 -0.528104
C      4.794075  0.425253  0.493496
C      4.024223  1.748330  0.353908
O      4.456959  2.801950 -0.093904
C      5.417851  0.270303  1.868487
C      6.589883 -0.074937  4.399386
C      6.205266  1.285119  2.439151
C      5.241266 -0.925073  2.583228
C      5.821143 -1.094128  3.841858
C      6.783370  1.113105  3.698221
O      2.761377  1.685443  0.830351
C      5.517685  0.004950 -1.805542
O      6.587693  0.253022 -2.591881
O      4.438979 -0.437148 -2.165055
C      6.535402 -0.005841 -4.018317
C      5.480769  0.869564 -4.704289
C      7.922919  0.398649 -4.539332
C      6.319467 -1.495542 -4.306919
H      6.662001  0.905198 -0.424397
H      4.074781 -0.382222  0.305957
H      7.041210 -0.208242  5.379112
H      6.376227  2.220823  1.909258
H      4.650320 -1.736678  2.162412
H      5.674447 -2.023614  4.386408
H      7.387184  1.906577  4.131644
H      2.403670  2.585335  0.680617
H      5.551620  0.797808 -5.794963
H      5.599944  1.919940 -4.415502
H      4.463547  0.580713 -4.423052
H      8.011736  0.248371 -5.620423
H      8.130327  1.452247 -4.317989
H      8.709867 -0.181621 -4.043399
H      6.443076 -1.716950 -5.372521
H      5.317462 -1.827056 -4.018332
H      7.028682 -2.108338 -3.739075
C      0.485747  0.607038 -0.968295
C      1.581715  1.301771 -0.649199
H      0.369116 -0.442006 -1.194665
H      2.605442  0.975618 -0.544241
C      1.224162  2.760568 -0.420966
O      1.934810  3.677576 -0.116135
C     -0.723046  1.526188 -0.988901
O     -1.870492  1.272426 -1.224717
C     -0.991616  4.038864 -0.592144
C     -1.485713  4.587435  0.608746
C     -1.234245  4.643236 -1.841853
C     -2.191176  5.802147  0.493734
C     -1.960973  5.828014 -1.914474
H     -0.850389  4.182393 -2.751615
C     -2.433401  6.413053 -0.735486
H     -2.562651  6.293476  1.396963
H     -2.153677  6.295671 -2.878203
H     -2.990372  7.347925 -0.776790
C     -1.261721  3.999008  2.009704
C      0.107530  4.500914  2.503523
H      0.912220  4.268501  1.793433
H      0.112986  5.589032  2.631338
H      0.374922  4.054068  3.465427
C     -2.356743  4.479868  2.990330
H     -3.351436  4.157962  2.662990
H     -2.190716  4.070954  3.992700
H     -2.372620  5.570684  3.093219
C     -1.310772  2.458962  2.018561
H     -2.090504  2.080487  1.346443
H     -0.356623  2.008772  1.736915
H     -1.540311  2.075660  3.020021
N     -0.197014  2.827850 -0.649460
98
TS candidate 5 - Rel. E. = 0.0 kcal/mol
C     -0.419346 -2.635878  0.474489
C      0.120305 -1.231855  0.606270
C      1.543874 -1.067655  0.334973
C      2.358863 -2.034671 -0.137320
C      1.786956 -3.397332 -0.471307
C      0.269229 -3.390782 -0.655901
C     -0.620179 -0.162874  0.959361
C     -2.072033 -0.140450  1.318836
N      3.716478 -1.784776 -0.302318
C      4.783949 -2.543860 -0.942165
C      4.628080 -2.558844 -2.458212
C      4.971874 -3.933505 -0.347625
H     -0.262198 -3.168519  1.421074
H     -1.495500 -2.639206  0.274190
H      1.963576 -0.088480  0.554147
H      2.216326 -3.788227 -1.396694
H      2.050021 -4.093179  0.334946
H      0.018309 -2.924043 -1.617778
H     -0.101344 -4.421522 -0.698116
H     -0.141944  0.814427  1.015467
H     -2.507800 -1.134761  1.437249
H     -2.636848  0.397629  0.551626
H     -2.203309  0.386195  2.269805
H      3.968085 -0.812069 -0.137554
H      5.710338 -1.994337 -0.728522
H      4.534737 -1.539341 -2.848547
H      3.745062 -3.115945 -2.781796
H      5.502025 -3.020460 -2.929981
H      5.924882 -4.360520 -0.679425
H      4.188961 -4.631482 -0.654132
H      4.984338 -3.895706  0.746829
N      5.400836  0.123873 -0.343372
C      5.362289  1.087282  0.744984
C      4.103581  1.978988  0.703957
O      3.853552  2.917226  1.447260
C      5.491712  0.353004  2.068381
C      5.786870 -1.036070  4.493003
C      4.430597 -0.402975  2.595588
C      6.707301  0.386664  2.770244
C      6.851361 -0.300816  3.976691
C      4.578027 -1.088886  3.802696
O      3.197313  1.625493 -0.238236
C      5.815617  0.490330 -1.584267
O      5.512678 -0.499347 -2.453058
O      6.355130  1.551205 -1.852707
C      5.831060 -0.370856 -3.862571
C      5.069973  0.796755 -4.500393
C      5.337738 -1.681422 -4.494702
C      7.343374 -0.259240 -4.084891
H      4.778346 -0.669447 -0.319750
H      6.206991  1.776145  0.614895
H      5.900467 -1.569883  5.433016
H      3.478240 -0.463856  2.073032
H      7.553639  0.949094  2.380197
H      7.796259 -0.263135  4.512846
H      3.748982 -1.665385  4.205207
H      2.491783  2.299350 -0.142009
H      5.428059  1.765058 -4.138269
H      5.178224  0.794799 -5.590424
H      4.003008  0.745121 -4.255813
H      5.833514 -2.545524 -4.036988
H      4.263136 -1.815918 -4.324308
H      5.522854 -1.707993 -5.573633
H      7.874784 -1.053616 -3.548822
H      7.595748 -0.327739 -5.148644
H      7.742394  0.690009 -3.714922
C      0.485747  0.607038 -0.968295
C      1.581715  1.301771 -0.649199
H      0.369116 -0.442006 -1.194665
H      2.605442  0.975618 -0.544241
C      1.224162  2.760568 -0.420966
O      1.934810  3.677576 -0.116135
C     -0.723046  1.526188 -0.988901
O     -1.870492  1.272426 -1.224717
C     -0.991616  4.038864 -0.592144
C     -1.485713  4.587435  0.608746
C     -1.234245  4.643236 -1.841853
C     -2.191176  5.802147  0.493734
C     -1.960973  5.828014 -1.914474
H     -0.850389  4.182393 -2.751615
C     -2.433401  6.413053 -0.735486
H     -2.562651  6.293476  1.396963
H     -2.153677  6.295671 -2.878203
H     -2.990372  7.347925 -0.776790
C     -1.261721  3.999008  2.009704
C      0.107530  4.500914  2.503523
H      0.912220  4.268501  1.793433
H      0.112986  5.589032  2.631338
H      0.374922  4.054068  3.465427
C     -2.356743  4.479868  2.990330
H     -3.351436  4.157962  2.662990
H     -2.190716  4.070954  3.992700
H     -2.372620  5.570684  3.093219
C     -1.310772  2.458962  2.018561
H     -2.090504  2.080487  1.346443
H     -0.356623  2.008772  1.736915
H     -1.540311  2.075660  3.020021
N     -0.197014  2.827850 -0.649460
