18
TS candidate 0
C      1.957765 -1.775163  0.742645
O      1.829747 -0.369222  0.636923
H      1.798743 -2.231205 -0.237558
H      1.223944 -2.156130  1.457109
H      2.963925 -2.014972  1.094562
H      0.927722 -0.187204  0.322934
C      3.176756  2.647601 -0.276667
O      2.149640  1.906773  0.356138
H      3.158102  2.453208 -1.351806
H      4.144949  2.359243  0.139914
H      3.008577  3.712316 -0.098315
H      2.325568  0.966776  0.180570
C      1.894257  1.166982 -0.925898
O      3.038163  0.358726 -0.719898
H      1.360104  1.291753  0.019179
H      1.242516  0.695921 -1.665778
H      2.211985  2.145356 -1.294064
H      2.724932 -0.501999 -0.393695
18
TS candidate 1
C      1.957765  0.371234 -1.355244
O      1.829747 -0.423294 -2.519964
H      1.798743 -0.249625 -0.470199
H      1.223944  1.180461 -1.382550
H      2.963925  0.795907 -1.323522
H      0.927722 -0.786226 -2.520602
C      3.360392  1.126624  0.805613
O      2.616123  0.844741  1.976443
H      4.192375  1.790592  1.052616
H      2.710792  1.598920  0.064639
H      3.752138  0.190985  0.399625
H      2.281537  1.693137  2.313557
C      1.340505 -0.140308  0.911467
O      0.642053  0.410765  2.012702
H      2.310493 -0.516708  1.245394
H      1.479233  0.626941  0.145849
H      0.755805 -0.964545  0.496170
H      1.184737  1.139015  2.359855
18
TS candidate 2
C      0.548742 -0.777721 -1.170322
O      0.676760 -0.388771 -2.525521
H      0.707764  0.089485 -0.524779
H      1.282563 -1.554649 -0.942337
H     -0.457418 -1.170994 -1.006952
H      1.578785 -0.044368 -2.640003
C      0.758100  1.251189  1.247693
O      1.842275  1.729316  2.022415
H      0.080339  0.676261  1.883427
H      1.136806  0.622491  0.438120
H      0.221333  2.103100  0.823617
H      2.299154  0.951526  2.385284
C      0.931250  1.722975 -1.404097
O     -0.093135  2.166581 -2.274778
H      1.225372  0.705865 -1.674355
H      0.570396  1.747631 -0.372950
H      1.793221  2.387164 -1.501931
H     -0.843971  1.558508 -2.165872
18
TS candidate 3
C      0.548742 -1.140814  1.022173
O      0.676760 -0.161652  2.036613
H      0.707764 -2.133474  1.450424
H      1.282563 -0.949791  0.235341
H     -0.457418 -1.085660  0.599903
H      1.578785 -0.234709  2.392117
C      3.176756  2.647601 -0.276667
O      2.149640  1.906773  0.356138
H      3.158102  2.453208 -1.351806
H      4.144949  2.359243  0.139914
H      3.008577  3.712316 -0.098315
H      2.325568  0.966776  0.180570
C     -1.093201  1.264793 -1.099570
O      0.141858  0.699553 -0.700358
H     -0.918617  2.011295 -1.878232
H     -1.578416  1.728615 -0.237292
H     -1.735212  0.473610 -1.493985
H      0.689751  1.424796 -0.355097
18
TS candidate 4
C      0.548742 -1.140814  1.022173
O      0.676760 -0.161652  2.036613
H      0.707764 -2.133474  1.450424
H      1.282563 -0.949791  0.235341
H     -0.457418 -1.085660  0.599903
H      1.578785 -0.234709  2.392117
C      3.176756  2.647601 -0.276667
O      2.149640  1.906773  0.356138
H      3.158102  2.453208 -1.351806
H      4.144949  2.359243  0.139914
H      3.008577  3.712316 -0.098315
H      2.325568  0.966776  0.180570
C      1.574613 -0.275471 -0.303452
O      1.352506  0.000585 -1.674108
H      1.453661  0.641659  0.278186
H      2.583235 -0.674115 -0.169839
H      0.845165 -1.016171  0.032672
H      2.014024  0.660227 -1.943619
18
TS candidate 5
C      1.957765  1.403929  0.612600
O      1.829747  0.792516  1.883041
H      1.798743  2.480830  0.707757
H      1.223944  0.975668 -0.074559
H      2.963925  1.219065  0.228961
H      0.927722  0.973429  2.197668
C      2.716921  0.755115 -1.288855
O      2.114921  0.555372 -2.554530
H      1.996411  0.522751 -0.500862
H      3.047086  1.793080 -1.201058
H      3.580159  0.091693 -1.197194
H      1.352859  1.156964 -2.606660
C      0.341701  0.436352  1.403022
O     -0.479224  1.058135  2.374466
H      1.388742  0.679141  1.600046
H      0.056906  0.784461  0.407131
H      0.203876 -0.645923  1.461314
H     -0.335598  2.016781  2.298716
18
TS candidate 6
C      1.957765 -1.572336  1.109272
O      1.829747 -0.735758 -0.025622
H      1.223983 -2.380040  1.052360
H      1.798690 -0.984265  2.016440
H      2.963955 -1.997813  1.125497
H      0.927722 -0.373045 -0.012991
C      0.648018  1.187633 -0.971026
O      0.782985  1.117734 -2.378553
H      1.582965  1.543802 -0.531621
H      0.401851  0.198165 -0.578034
H     -0.156277  1.885087 -0.725301
H      1.503216  0.491991 -2.565854
C     -1.367955  1.423422  0.326208
O     -0.096790  0.837336  0.538052
H     -1.483237  1.673603 -0.731232
H     -1.461166  2.324581  0.937200
H     -2.141697  0.708329  0.615477
H      0.568752  1.494655  0.272804
18
TS candidate 7
C      1.957765 -1.572336  1.109272
O      1.829747 -0.735758 -0.025622
H      1.223983 -2.380040  1.052360
H      1.798690 -0.984265  2.016440
H      2.963955 -1.997813  1.125497
H      0.927722 -0.373045 -0.012991
C      0.619095 -0.456065  0.483242
O      1.773338  0.358160  0.578088
H      0.269089 -0.474519 -0.551754
H     -0.162202 -0.059803  1.136418
H      0.873350 -1.471084  0.797570
H      1.516948  1.251701  0.293103
C      0.931250  1.722975 -1.404097
O     -0.093135  2.166581 -2.274778
H      1.225372  0.705865 -1.674355
H      0.570396  1.747631 -0.372950
H      1.793221  2.387164 -1.501931
H     -0.843971  1.558508 -2.165872
18
TS candidate 8
C      0.548742 -1.140814  1.022173
O      0.676760 -0.161652  2.036613
H      0.707764 -2.133474  1.450424
H      1.282563 -0.949791  0.235341
H     -0.457418 -1.085660  0.599903
H      1.578785 -0.234709  2.392117
C      2.841422  0.826996  1.216364
O      2.368326  0.701676  2.544789
H      3.158357  1.857277  1.037109
H      2.047045  0.552046  0.518183
H      3.693159  0.156899  1.077710
H      1.613469  1.307428  2.637659
C     -0.029420  2.277618 -0.995354
O     -0.851886  2.604647  0.109560
H     -0.590418  2.417887 -1.922536
H      0.300995  1.239509 -0.910245
H      0.842461  2.936051 -0.996624
H     -1.616442  2.004494  0.084241
