25
TS candidate 0
C     -1.437951 -0.966453  0.518363
H     -0.977033 -0.595657  1.440098
C     -0.790377 -1.919238 -0.261477
H     -1.373583 -2.548809 -0.936025
C      0.600131 -1.986228 -0.323946
H      1.054903 -2.659502 -1.057016
C      1.402452 -1.113799  0.394764
H      1.132185 -0.754717  1.379764
H      2.467291 -1.061447  0.203488
C     -2.917586 -0.815399  0.433641
H     -3.328177 -0.179453  1.226046
H     -3.238299 -0.373985 -0.529219
H     -3.429012 -1.788134  0.499078
O      0.098206  0.217020 -2.563993
C      1.230213  0.417401 -1.765634
C     -1.060956  0.471836 -1.808675
C      0.756436  0.778181 -0.388653
O      2.317612  0.290740 -2.236078
C     -0.645481  0.791618 -0.426013
O     -2.126029  0.411493 -2.343574
H     -1.278541  1.387508  0.209070
C      1.581504  1.670376  0.457549
H      2.511148  1.205359  0.815521
H      1.896638  2.561838 -0.115692
H      1.032837  2.032826  1.338274
25
TS candidate 1
C     -1.415177 -0.105027 -1.139309
H     -0.993746  0.899443 -1.257044
C     -0.677936 -1.224018 -1.515120
H     -1.188929 -2.167421 -1.727876
C      0.716319 -1.216567 -1.477861
H      1.255576 -2.156605 -1.640557
C      1.412750 -0.086922 -1.079514
H      1.047716  0.916707 -1.266898
H      2.481925 -0.121968 -0.903886
C     -2.905905 -0.174099 -1.164346
H     -3.374841  0.816846 -1.171542
H     -3.271583 -0.705072 -2.056643
H     -3.320745 -0.721220 -0.298228
O     -0.102101 -2.097952  1.480187
C     -1.236221 -1.297768  1.287460
C      1.055958 -1.320200  1.309024
C     -0.773716  0.075734  0.901896
O     -2.318287 -1.769967  1.459082
C      0.631872  0.045924  0.916294
O      2.126513 -1.812728  1.490819
H      1.280797  0.887729  1.097642
C     -1.563572  1.257392  1.334968
H     -2.397322  1.513715  0.667758
H     -2.020077  1.081499  2.325969
H     -0.944328  2.161903  1.427723
25
TS candidate 2
C     -1.481484  0.961786  0.448801
H     -1.109325  0.695979  1.446308
C     -0.762354  1.843698 -0.350051
H     -1.279242  2.408992 -1.125633
C      0.630230  1.900497 -0.282202
H      1.164245  2.532835 -0.995305
C      1.344386  1.055998  0.553194
H      0.951187  0.734683  1.512191
H      2.423106  0.991943  0.499705
C     -2.949297  0.794468  0.256662
H     -3.333393 -0.122914  0.736781
H     -3.502832  1.637726  0.703601
H     -3.241840  0.746713 -0.800162
O      0.206973 -2.048961  1.500802
C      1.301391 -1.574870  0.769043
C     -0.988442 -1.683383  0.850832
C      0.764567 -0.783978 -0.389656
O      2.409056 -1.826245  1.128915
C     -0.635197 -0.855164 -0.321368
O     -2.027712 -2.059702  1.298979
H     -1.300863 -0.776929 -1.164605
C      1.560112 -0.679367 -1.633063
H      2.640897 -0.581173 -1.436439
H      1.438093 -1.581785 -2.259227
H      1.256273  0.177798 -2.253953
25
TS candidate 3
C     -1.374568  0.002967 -1.135969
H     -0.872091 -0.962890 -1.263208
C     -0.703300  1.174733 -1.472883
H     -1.271478  2.077454 -1.689075
C      0.688200  1.245277 -1.404384
H      1.176678  2.211874 -1.529107
C      1.437338  0.141435 -1.029599
H      1.135335 -0.871879 -1.275555
H      2.498239  0.221596 -0.827604
C     -2.862280 -0.070604 -1.201567
H     -3.230629 -1.109146 -1.186191
H     -3.358185  0.434363 -0.358168
H     -3.252043  0.396223 -2.116929
O     -0.172980 -2.240186  1.168621
C     -1.285797 -1.389490  1.109514
C      1.009269 -1.478239  1.129117
C     -0.779703  0.010013  0.927221
O     -2.381069 -1.851065  1.195768
C      0.625531 -0.059987  0.948043
O      2.060656 -2.029002  1.238613
H      1.278470  0.728721  1.281916
C     -1.552359  1.140294  1.496096
H     -2.457815  1.385784  0.918757
H     -1.894096  0.915371  2.522099
H     -0.956385  2.062162  1.554477
