25
TS candidate 0
C     -1.457864  1.188386 -0.375541
H     -1.063960  1.692210 -1.273382
C     -0.800663  1.581905  0.872829
H     -1.442363  1.852873  1.708971
C      0.539566  1.561462  0.985081
H      1.042263  1.811375  1.917597
C      1.377555  1.149824 -0.134301
H      1.269808  1.727301 -1.053203
H      2.422331  0.934093  0.078230
C     -2.957485  1.129755 -0.345390
H     -3.367822  0.603388 -1.223577
H     -3.345749  0.619476  0.544716
H     -3.392561  2.139873 -0.354058
O      0.026998 -0.797284 -2.878525
C     -1.148783 -0.776743 -2.119921
C      1.144988 -0.691185 -2.048124
C     -0.796646 -0.567781 -0.674384
O     -2.195580 -0.897972 -2.677179
C      0.691062 -0.549534 -0.635846
O      2.234401 -0.706360 -2.532925
H      1.182701 -1.189680  0.096218
C     -1.491246 -1.483311  0.283094
H     -1.367011 -1.146362  1.322084
H     -2.573365 -1.541006  0.088263
H     -1.105921 -2.511812  0.225820
25
TS candidate 1
C     -1.449255 -0.036309  1.083701
H     -0.973999  0.940621  1.221286
C     -0.823037 -1.195147  1.529450
H     -1.421507 -2.087846  1.727095
C      0.567841 -1.295230  1.567319
H      1.017372 -2.271746  1.775094
C      1.378288 -0.239411  1.181676
H      1.099198  0.791175  1.361554
H      2.446700 -0.374455  1.065217
C     -2.926463 -0.006930  0.895163
H     -3.277182  0.914457  0.412941
H     -3.285921 -0.849074  0.275505
H     -3.450442 -0.085914  1.861011
O      0.153826 -2.143976 -1.469523
C      1.266231 -1.327372 -1.238676
C     -1.025206 -1.391498 -1.305310
C      0.760851  0.032903 -0.856775
O      2.365733 -1.769704 -1.366561
C     -0.639660 -0.018789 -0.904996
O     -2.077845 -1.915696 -1.505260
H     -1.288420  0.813180 -1.125157
C      1.577948  1.231023 -1.155552
H      2.644227  1.089174 -0.914584
H      1.536136  1.475225 -2.232575
H      1.232153  2.124472 -0.616630
25
TS candidate 2
C     -1.399347 -0.949269  0.671599
H     -0.989697 -1.558562 -0.139893
C     -0.651262 -0.721002  1.823310
H     -1.163921 -0.458269  2.752848
C      0.740922 -0.667306  1.791132
H      1.275418 -0.343993  2.689836
C      1.442843 -0.846941  0.609696
H      1.096970 -1.509024 -0.174900
H      2.505425 -0.639234  0.556410
C     -2.888828 -0.923526  0.758218
H     -3.377820 -1.075831 -0.211759
H     -3.257549 -1.716314  1.428331
H     -3.272851  0.028714  1.164740
O     -0.151193  2.370353  1.060188
C     -1.269155  1.765959  0.471309
C      1.022178  1.844653  0.491021
C     -0.779418  0.738624 -0.502015
O     -2.362432  2.126492  0.783713
C      0.624130  0.805668 -0.489966
O      2.080252  2.271782  0.836404
H      1.267261  0.562422 -1.319693
C     -1.572735  0.454684 -1.722864
H     -2.658118  0.468452 -1.534565
H     -1.384755  1.218040 -2.498109
H     -1.327879 -0.516392 -2.173762
25
TS candidate 3
C     -1.506765  0.109714  1.048038
H     -1.154861 -0.897258  1.304777
C     -0.773272  1.225129  1.436330
H     -1.275394  2.185832  1.549627
C      0.617043  1.174989  1.533674
H      1.162058  2.101476  1.729006
C      1.323995  0.023226  1.226226
H      0.922347 -0.965179  1.418815
H      2.404598  0.029202  1.163934
C     -2.971565  0.223216  0.800052
H     -3.347686 -0.574063  0.134291
H     -3.531113  0.125668  1.745211
H     -3.264206  1.181152  0.350761
O      0.179618 -2.316821 -1.051599
C      1.285705 -1.465000 -0.963844
C     -1.003654 -1.551230 -1.065094
C      0.768881 -0.059024 -0.846393
O      2.387923 -1.916907 -0.986473
C     -0.632574 -0.130038 -0.898491
O     -2.049213 -2.110252 -1.194451
H     -1.278794  0.653623 -1.259317
C      1.589264  1.060814 -1.359636
H      2.657276  0.951922 -1.111397
H      1.528957  1.123323 -2.460539
H      1.257194  2.034700 -0.969227
25
TS candidate 4
C     -1.397211  0.952108  0.671909
H     -0.987342  1.564053 -0.137326
C     -0.649955  0.720962  1.823899
H     -1.164309  0.460259  2.753030
C      0.742034  0.661693  1.792981
H      1.274367  0.329810  2.690262
C      1.446602  0.844885  0.613459
H      1.104119  1.511205 -0.168687
H      2.509315  0.635701  0.561764
C     -2.886914  0.922765  0.755685
H     -3.374147  1.073644 -0.215546
H     -3.270082 -0.031037  1.160035
H     -3.259739  1.713613  1.425513
O     -0.147411 -2.361625  1.062736
C     -1.266865 -1.760848  0.473532
C      1.024779 -1.839785  0.486954
C     -0.779371 -0.735474 -0.503253
O     -2.359608 -2.122527  0.786854
C      0.624245 -0.801037 -0.493490
O      2.083028 -2.269952  0.827484
H      1.265995 -0.556123 -1.323769
C     -1.579180 -0.457215 -1.721167
H     -1.380349 -1.211682 -2.502371
H     -2.663836 -0.493805 -1.530224
H     -1.353832  0.521279 -2.165347
25
TS candidate 5
C     -1.481744 -0.249889  1.132610
H     -1.246047  0.273284  2.072695
C     -0.777997 -1.520939  0.952455
H     -1.385181 -2.393957  0.720470
C      0.562420 -1.593566  1.033508
H      1.096377 -2.529355  0.875524
C      1.366744 -0.403200  1.280436
H      1.138289  0.148156  2.192366
H      2.440214 -0.488339  1.127893
C     -2.942576 -0.245950  0.787516
H     -3.358815  0.775806  0.764104
H     -3.148216 -0.697908 -0.190998
H     -3.527330 -0.805933  1.531906
O      0.194945  2.916864  0.775470
C      1.304223  2.116128  0.493857
C     -0.985171  2.267615  0.394601
C      0.829527  0.809676 -0.080115
O      2.396069  2.521993  0.745697
C     -0.651913  0.912050 -0.121203
O     -2.025445  2.833833  0.537474
H     -1.150847  0.610403 -1.041499
C      1.534312  0.364282 -1.321181
H      1.261236  0.975837 -2.194477
H      2.629015  0.426634 -1.219856
H      1.291476 -0.679297 -1.569847
25
TS candidate 6
C     -1.370909  1.033538  0.509864
H     -0.906997  0.694734  1.443477
C     -0.670944  1.864846 -0.360039
H     -1.224358  2.490158 -1.062721
C      0.718311  1.809512 -0.463394
H      1.207077  2.358401 -1.270212
C      1.462497  0.953796  0.332020
H      1.170719  0.715632  1.349711
H      2.516857  0.784699  0.148221
C     -2.861237  1.088370  0.543482
H     -3.312097  0.144931  0.896422
H     -3.203297  1.869875  1.242101
H     -3.310262  1.313930 -0.432099
O     -0.132608 -2.080175  1.460627
C     -1.260578 -1.637318  0.758255
C      1.031994 -1.684662  0.776683
C     -0.787667 -0.818942 -0.406003
O     -2.347020 -1.944591  1.141228
C      0.617057 -0.880895 -0.395859
O      2.095769 -2.015543  1.200203
H      1.246932 -0.814890 -1.268238
C     -1.603772 -0.772392 -1.641946
H     -1.461860 -1.685468 -2.245092
H     -2.683271 -0.700811 -1.435216
H     -1.333805  0.077678 -2.286244
25
TS candidate 7
C     -1.448332  0.034933  1.083217
H     -0.964644 -0.938157  1.219172
C     -0.828812  1.198040  1.526577
H     -1.432270  2.086917  1.725745
C      0.561679  1.307532  1.560693
H      1.003998  2.288527  1.763000
C      1.378981  0.256665  1.176982
H      1.109481 -0.775546  1.362190
H      2.446139  0.400882  1.057761
C     -2.925987 -0.008724  0.898191
H     -3.269634 -0.937012  0.424394
H     -3.447943  0.072959  1.864943
H     -3.297046  0.824243  0.273451
O      0.167492  2.147074 -1.466738
C      1.274808  1.320934 -1.244667
C     -1.016368  1.403186 -1.297556
C      0.760613 -0.034709 -0.858550
O      2.377145  1.753258 -1.381949
C     -0.639319  0.025503 -0.905771
O     -2.066559  1.936458 -1.486125
H     -1.295337 -0.800205 -1.128004
C      1.571333 -1.238182 -1.152617
H      1.545136 -1.474025 -2.232013
H      2.635073 -1.106424 -0.895940
H      1.209555 -2.132748 -0.626167
