25
TEST
C      0.225706 -0.928426  1.635165
H      1.270857 -1.012943  2.045085
C     -0.354111  0.367266  2.119279
H     -1.149920  0.313538  2.853478
C      0.129840  1.514251  1.632557
H     -0.231304  2.492003  1.931693
C      1.232715  1.481102  0.623980
H      2.196632  1.288719  1.145013
H      1.362662  2.469331  0.132048
C     -0.573192 -2.136796  2.117446
H     -0.184559 -3.074911  1.704685
H     -0.544063 -2.221051  3.209858
H     -1.632275 -2.076921  1.826430
O     -1.155335  0.126030 -1.451987
C     -0.035845  0.942689 -1.433083
C     -1.014807 -0.945786 -0.575928
C      0.998711  0.397678 -0.446722
O      0.002861  1.905042 -2.133734
C      0.344295 -0.900100  0.095190
O     -1.904208 -1.734089 -0.493176
H      0.923264 -1.800127 -0.228002
C      2.286975  0.107293 -1.206269
H      2.135348 -0.603977 -2.029224
H      2.704113  1.022920 -1.653443
H      3.057581 -0.312299 -0.547823
25
TEST
C      0.212607 -0.898826  1.761916
H      1.253743 -0.958694  2.167796
C     -0.376895  0.360962  2.100572
H     -1.206426  0.302132  2.679783
C      0.121503  1.533805  1.663435
H     -0.289659  2.490021  1.932759
C      1.251685  1.537642  0.763924
H      2.183064  1.261357  1.195901
H      1.422508  2.525966  0.326369
C     -0.560137 -2.126903  2.195003
H     -0.125176 -3.045829  1.808884
H     -0.585596 -2.222531  3.278572
H     -1.592312 -2.095900  1.851418
O     -1.171132  0.144995 -1.437976
C     -0.036062  0.929849 -1.464771
C     -1.018339 -0.960676 -0.619180
C      1.003984  0.316442 -0.576398
O      0.004822  1.913459 -2.125062
C      0.356624 -0.954832 -0.048573
O     -1.912405 -1.732425 -0.500578
H      0.912556 -1.860308 -0.280485
C      2.310078  0.113430 -1.256181
H      2.212062 -0.464910 -2.113085
H      2.709636  1.027671 -1.558927
H      3.067058 -0.362125 -0.647011
25
TEST
C      0.199507 -0.869227  1.888666
H      1.236628 -0.904445  2.290506
C     -0.399679  0.354658  2.081865
H     -1.262932  0.290727  2.506087
C      0.113166  1.553359  1.694314
H     -0.348013  2.488038  1.933825
C      1.270656  1.594182  0.903868
H      2.169496  1.233994  1.246788
H      1.482355  2.582600  0.520690
C     -0.547082 -2.117010  2.272559
H     -0.065792 -3.016746  1.913082
H     -0.627130 -2.224011  3.347285
H     -1.552348 -2.114878  1.876406
O     -1.186929  0.163959 -1.423964
C     -0.036279  0.917009 -1.496460
C     -1.021870 -0.975566 -0.662433
C      1.009258  0.235207 -0.706073
O      0.006784  1.921875 -2.116390
C      0.368952 -1.009563 -0.192335
O     -1.920601 -1.730761 -0.507979
H      0.901848 -1.920490 -0.332969
C      2.333181  0.119567 -1.306094
H      2.288775 -0.325844 -2.196946
H      2.715160  1.032421 -1.464411
H      3.076536 -0.411951 -0.746199
25
TEST
C      0.186408 -0.839627  2.015417
H      1.219514 -0.850196  2.413217
C     -0.422463  0.348354  2.063158
H     -1.319438  0.279321  2.332392
C      0.104829  1.572913  1.725192
H     -0.406368  2.486056  1.934891
C      1.289626  1.650722  1.043812
H      2.155928  1.206632  1.297676
H      1.542201  2.639235  0.715011
C     -0.534027 -2.107117  2.350116
H     -0.006409 -2.987664  2.017281
H     -0.668663 -2.225491  3.415999
H     -1.512385 -2.133857  1.901394
O     -1.202726  0.182924 -1.409953
C     -0.036496  0.904169 -1.528148
C     -1.025402 -0.990456 -0.705685
C      1.014531  0.153971 -0.835749
O      0.008745  1.930292 -2.107718
C      0.381281 -1.064295 -0.336098
O     -1.928798 -1.729097 -0.515381
H      0.891140 -1.980671 -0.385452
C      2.356284  0.125704 -1.356006
H      2.365489 -0.186777 -2.280807
H      2.720683  1.037172 -1.369895
H      3.086013 -0.461777 -0.845387
25
TEST
C      0.173308 -0.810027  2.142167
H      1.202399 -0.795946  2.535927
C     -0.445246  0.342049  2.044451
H     -1.375943  0.267915  2.158697
C      0.096491  1.592466  1.756071
H     -0.464722  2.484073  1.935957
C      1.308597  1.707262  1.183755
H      2.142360  1.179270  1.348563
H      1.602048  2.695869  0.909331
C     -0.520971 -2.097223  2.427673
H      0.052974 -2.958581  2.121479
H     -0.710197 -2.226970  3.484712
H     -1.472422 -2.152836  1.926381
O     -1.218524  0.201889 -1.395941
C     -0.036712  0.891328 -1.559836
C     -1.028934 -1.005346 -0.748937
C      1.019805  0.072736 -0.965424
O      0.010706  1.938709 -2.099046
C      0.393610 -1.119026 -0.479861
O     -1.936995 -1.727433 -0.522782
H      0.880432 -2.040853 -0.437935
C      2.379388  0.131841 -1.405918
H      2.442203 -0.047711 -2.364667
H      2.726206  1.041923 -1.275379
H      3.095490 -0.511604 -0.944575
25
TEST
C      0.160209 -0.780427  2.268918
H      1.185285 -0.741697  2.658638
C     -0.468030  0.335745  2.025744
H     -1.432449  0.256509  1.985002
C      0.088154  1.612020  1.786949
H     -0.523077  2.482091  1.937023
C      1.327567  1.763802  1.323699
H      2.128792  1.151908  1.399451
H      1.661894  2.752504  1.103652
C     -0.507916 -2.087330  2.505230
H      0.112357 -2.929499  2.225678
H     -0.751730 -2.228450  3.553426
H     -1.432459 -2.171815  1.951369
O     -1.234321  0.220854 -1.381930
C     -0.036929  0.878488 -1.591524
C     -1.032466 -1.020236 -0.792189
C      1.025078 -0.008500 -1.095100
O      0.012667  1.947126 -2.090374
C      0.405939 -1.173758 -0.623624
O     -1.945192 -1.725769 -0.530184
H      0.869724 -2.101034 -0.490418
C      2.402491  0.137978 -1.455830
H      2.518917  0.091356 -2.448528
H      2.731729  1.046674 -1.180863
H      3.104967 -0.561430 -1.043763
25
TEST
C      0.147109 -0.750828  2.395668
H      1.168170 -0.687448  2.781348
C     -0.490814  0.329441  2.007037
H     -1.488955  0.245104  1.811306
C      0.079817  1.631574  1.817828
H     -0.581431  2.480108  1.938089
C      1.346538  1.820342  1.463643
H      2.115224  1.124545  1.450338
H      1.721741  2.809138  1.297973
C     -0.494861 -2.077437  2.582786
H      0.171741 -2.900416  2.329876
H     -0.793264 -2.229930  3.622139
H     -1.392495 -2.190793  1.976357
O     -1.250118  0.239818 -1.367918
C     -0.037146  0.865648 -1.623213
C     -1.035997 -1.035126 -0.835442
C      1.030352 -0.089735 -1.224775
O      0.014629  1.955542 -2.081702
C      0.418267 -1.228489 -0.767386
O     -1.953388 -1.724105 -0.537585
H      0.859016 -2.161216 -0.542902
C      2.425594  0.144115 -1.505743
H      2.595630  0.230422 -2.532389
H      2.737253  1.051424 -1.086347
H      3.114445 -0.611256 -1.142951
25
TEST
C      0.134010 -0.721228  2.522419
H      1.151056 -0.633199  2.904059
C     -0.513598  0.323137  1.988330
H     -1.545461  0.233698  1.637611
C      0.071480  1.651128  1.848706
H     -0.639786  2.478126  1.939155
C      1.365508  1.876882  1.603587
H      2.101656  1.097183  1.501226
H      1.781587  2.865773  1.492294
C     -0.481806 -2.067544  2.660343
H      0.231124 -2.871334  2.434075
H     -0.834797 -2.231410  3.690853
H     -1.352532 -2.209772  2.001345
O     -1.265915  0.258783 -1.353907
C     -0.037363  0.852808 -1.654901
C     -1.039529 -1.050016 -0.878694
C      1.035625 -0.170971 -1.354451
O      0.016590  1.963959 -2.073030
C      0.430596 -1.283221 -0.911149
O     -1.961585 -1.722441 -0.544987
H      0.848308 -2.221397 -0.595385
C      2.448697  0.150252 -1.555655
H      2.672344  0.369489 -2.616250
H      2.742776  1.056175 -0.991831
H      3.123922 -0.661082 -1.242139
