25
structure_0
C      0.134010 -0.721228  2.522419
H      1.151056 -0.633199  2.904059
C     -0.513598  0.323137  1.988330
H     -1.545461  0.233698  1.637611
C      0.071480  1.651128  1.848706
H     -0.639786  2.478126  1.939155
C      1.365508  1.876882  1.603587
H      2.101656  1.097183  1.501226
H      1.781587  2.865773  1.492294
C     -0.481806 -2.067544  2.660343
H      0.231124 -2.871334  2.434075
H     -0.834797 -2.231410  3.690853
H     -1.352532 -2.209772  2.001345
O     -1.265915  0.258783 -1.353907
C     -0.037363  0.852808 -1.654901
C     -1.039529 -1.050016 -0.878694
C      1.035625 -0.170971 -1.354451
O      0.016590  1.963959 -2.073030
C      0.430596 -1.283221 -0.911149
O     -1.961585 -1.722441 -0.544987
H      0.848308 -2.221397 -0.595385
C      2.448697  0.150252 -1.555655
H      2.672344  0.369489 -2.616250
H      2.742776  1.056175 -0.991831
H      3.123922 -0.661082 -1.242139
