46
OOF_MEP_image_0
C     -1.149673 -2.221235  0.667435
C      0.076655 -1.558041  0.114292
C      1.152043 -2.424761 -0.328624
C      1.053212 -3.777693 -0.337213
C     -0.196415 -4.483797  0.126013
C     -1.411865 -3.563057 -0.028081
C      0.187847 -0.215548 -0.009111
C     -0.775345  0.744643  0.610076
N      2.100172 -4.634645 -0.668777
C      3.294619 -4.119542 -1.363996
C      2.980715 -3.734325 -2.820074
C      4.381440 -5.203964 -1.317526
H     -2.040177 -1.568839  0.560443
H     -1.018704 -2.372912  1.759025
H      2.062933 -1.924582 -0.641667
H     -0.067883 -4.771126  1.192779
H     -0.364869 -5.428659 -0.423434
H     -2.312674 -4.044819  0.392470
H     -1.623185 -3.391298 -1.101580
H      1.128303  0.243019 -0.311983
H     -0.604996  0.808102  1.695249
H     -0.664555  1.759748  0.203963
H     -1.825409  0.459673  0.462852
H      1.860047 -5.587748 -0.902507
H      3.655738 -3.214444 -0.803792
H      3.857674 -3.302595 -3.312304
H      2.662765 -4.599493 -3.409739
H      2.172604 -2.993130 -2.866689
H      5.313307 -4.840423 -1.764442
H      4.602386 -5.494393 -0.282013
H      4.088049 -6.108656 -1.859337
C      0.480131  2.201344 -2.860469
C      0.983637  0.739970 -2.927303
C     -0.131730 -0.066385 -2.261669
C     -1.266695  0.660273 -2.186384
C     -1.002427  2.070839 -2.521821
O     -1.787429  2.980826 -2.536848
C      2.381061  0.552898 -2.358925
H      0.632468  2.749433 -3.800895
H      0.993704  2.785857 -2.079118
H      1.001612  0.413510 -4.001963
H     -0.025383 -1.139569 -2.208530
H     -2.245679  0.334639 -1.895202
H      2.482337  0.977276 -1.351285
H      3.131623  1.045985 -2.988817
H      2.648630 -0.509483 -2.297432
46
OOF_MEP_image_1
C     -1.163462 -2.223242  0.649377
C      0.147531 -1.589286  0.282602
C      1.195274 -2.454932 -0.228731
C      1.050384 -3.798735 -0.326266
C     -0.217386 -4.486245  0.114202
C     -1.408885 -3.544479 -0.088094
C      0.377199 -0.273929  0.449884
C     -0.630963  0.726983  0.889003
N      2.057151 -4.673450 -0.730710
C      3.257403 -4.172565 -1.422507
C      2.959244 -3.806370 -2.887101
C      4.325092 -5.275705 -1.357621
H     -2.006950 -1.529788  0.456055
H     -1.163850 -2.401373  1.746441
H      2.114975 -1.961496 -0.524560
H     -0.119876 -4.756212  1.188703
H     -0.386434 -5.438849 -0.420683
H     -2.337293 -4.019507  0.278620
H     -1.562638 -3.352910 -1.167129
H      1.364999  0.139781  0.258932
H     -0.616031  0.853584  1.980154
H     -0.440569  1.711478  0.437681
H     -1.655309  0.449689  0.605075
H      1.769695 -5.598378 -1.019717
H      3.627221 -3.265047 -0.873812
H      3.849842 -3.403762 -3.380072
H      2.629657 -4.677608 -3.461708
H      2.167201 -3.050927 -2.953030
H      5.269156 -4.933708 -1.793082
H      4.522516 -5.566869 -0.317454
H      4.015703 -6.175553 -1.898865
C      0.358318  2.319473 -3.028667
C      1.001177  0.926646 -3.252796
C     -0.077682 -0.048907 -2.826581
C     -1.232638  0.556407 -2.514427
C     -1.088522  2.025700 -2.646019
O     -1.943033  2.855897 -2.495418
C      2.292277  0.707621 -2.472097
H      0.401493  2.946364 -3.931878
H      0.853879  2.896481 -2.229135
H      1.210233  0.781540 -4.341254
H      0.139549 -1.104297 -2.798877
H     -2.157511  0.115462 -2.191892
H      2.197537  1.008677 -1.421448
H      3.124312  1.275198 -2.903701
H      2.576554 -0.352498 -2.471344
46
OOF_MEP_image_2
C     -1.139770 -2.170446  0.520431
C      0.203178 -1.588842  0.181513
C      1.220525 -2.489477 -0.329598
C      1.039045 -3.830176 -0.404577
C     -0.244574 -4.472416  0.056803
C     -1.408999 -3.506102 -0.183030
C      0.488604 -0.287228  0.373485
C     -0.485274  0.746037  0.815372
N      2.017839 -4.737951 -0.802898
C      3.231653 -4.280684 -1.500644
C      2.946367 -3.942112 -2.974248
C      4.273859 -5.405881 -1.406703
H     -1.951796 -1.455597  0.276216
H     -1.185599 -2.312414  1.621796
H      2.149657 -2.025091 -0.641051
H     -0.156189 -4.706249  1.140610
H     -0.437512 -5.438063 -0.445501
H     -2.352628 -3.947523  0.185434
H     -1.548269 -3.341183 -1.268210
H      1.496702  0.085832  0.206775
H     -0.513265  0.831923  1.910621
H     -0.229650  1.736831  0.414605
H     -1.509834  0.530583  0.479676
H      1.703516 -5.657315 -1.079553
H      3.620811 -3.369454 -0.971523
H      3.848319 -3.572296 -3.472022
H      2.597742 -4.818176 -3.530199
H      2.173633 -3.168918 -3.060175
H      5.227068 -5.094529 -1.845000
H      4.460791 -5.678586 -0.359711
H      3.947047 -6.310139 -1.929944
C      0.186309  2.390273 -3.007917
C      0.975328  1.080281 -3.260944
C      0.000677 -0.014953 -2.878434
C     -1.216600  0.455683 -2.572966
C     -1.226438  1.934605 -2.660620
O     -2.164493  2.665757 -2.498051
C      2.271149  0.973677 -2.464393
H      0.176386  3.051649 -3.887509
H      0.608188  2.982851 -2.179079
H      1.211496  0.995357 -4.349201
H      0.327791 -1.041195 -2.870697
H     -2.092986 -0.089457 -2.279268
H      2.127014  1.240584 -1.409461
H      3.046989  1.633056 -2.869089
H      2.661651 -0.052837 -2.481046
46
OOF_MEP_image_3
C     -1.116450 -2.128892  0.418325
C      0.249069 -1.589846  0.097283
C      1.241463 -2.518213 -0.413865
C      1.030380 -3.855611 -0.469650
C     -0.264985 -4.460062  0.009539
C     -1.407810 -3.474887 -0.256779
C      0.578695 -0.302143  0.312867
C     -0.366565  0.758244  0.753753
N      1.986131 -4.791142 -0.859852
C      3.210174 -4.369234 -1.562418
C      2.935656 -4.051703 -3.042748
C      4.231857 -5.511086 -1.445999
H     -1.903341 -1.399412  0.136913
H     -1.193392 -2.241251  1.521954
H      2.176122 -2.077329 -0.741465
H     -0.180654 -4.668120  1.099114
H     -0.478243 -5.434090 -0.467904
H     -2.362352 -3.889872  0.114549
H     -1.536937 -3.331354 -1.346364
H      1.602697  0.036373  0.166281
H     -0.430607  0.816312  1.849082
H     -0.058697  1.747876  0.389619
H     -1.386349  0.592886  0.376948
H      1.648719 -5.704534 -1.130057
H      3.614867 -3.455919 -1.048433
H      3.846530 -3.707763 -3.543250
H      2.572113 -4.930761 -3.584450
H      2.178168 -3.265478 -3.145053
H      5.191642 -5.223308 -1.886349
H      4.410646 -5.769081 -0.393871
H      3.890701 -6.418214 -1.954994
C      0.046349  2.439547 -2.987444
C      0.948025  1.209520 -3.263814
C      0.065997  0.025617 -2.923476
C     -1.190581  0.382105 -2.622302
C     -1.325852  1.856051 -2.670988
O     -2.326580  2.499409 -2.509408
C      2.238518  1.192848 -2.451724
H     -0.009154  3.122195 -3.848625
H      0.405897  3.042663 -2.138371
H      1.204288  1.175824 -4.349701
H      0.476628 -0.969606 -2.933411
H     -2.020427 -0.242219 -2.352599
H      2.059981  1.419010 -1.392613
H      2.961300  1.925609 -2.828327
H      2.715476  0.203878 -2.484779
46
OOF_MEP_image_4
C     -1.087244 -2.088107  0.321382
C      0.296821 -1.590096  0.014725
C      1.264569 -2.544526 -0.495478
C      1.024347 -3.877959 -0.530711
C     -0.282587 -4.444680 -0.037837
C     -1.403970 -3.441406 -0.328068
C      0.661012 -0.313355  0.240855
C     -0.252865  0.766469  0.699534
N      1.956252 -4.839711 -0.914190
C      3.188817 -4.451281 -1.620753
C      2.923088 -4.152532 -3.106297
C      4.189977 -5.608325 -1.482395
H     -1.849082 -1.344807  0.007293
H     -1.187245 -2.173774  1.425023
H      2.208846 -2.131583 -0.831899
H     -0.201349 -4.626851  1.056246
H     -0.518061 -5.426655 -0.488029
H     -2.368568 -3.828768  0.048806
H     -1.527681 -3.318951 -1.421155
H      1.691132 -0.001813  0.090394
H     -0.347911  0.788408  1.793592
H      0.099938  1.756968  0.382721
H     -1.265218  0.644469  0.289633
H      1.595992 -5.745816 -1.179121
H      3.608953 -3.536459 -1.121872
H      3.842474 -3.834359 -3.608063
H      2.543664 -5.032141 -3.635741
H      2.181151 -3.353558 -3.223286
H      5.155905 -5.343474 -1.923264
H      4.360124 -5.851953 -0.425443
H      3.835278 -6.517407 -1.978244
C     -0.084466  2.476135 -2.968839
C      0.919398  1.330338 -3.261495
C      0.126110  0.072852 -2.966599
C     -1.157789  0.321130 -2.670078
C     -1.411692  1.779289 -2.688305
O     -2.462873  2.334277 -2.520836
C      2.196362  1.393766 -2.428875
H     -0.187895  3.166035 -3.819002
H      0.212880  3.086385 -2.099167
H      1.196402  1.350042 -4.343520
H      0.608788 -0.889833 -2.992264
H     -1.939342 -0.375396 -2.431648
H      1.989097  1.565341 -1.364273
H      2.858833  2.195809 -2.773433
H      2.754851  0.450063 -2.488041
46
OOF_MEP_image_5
C     -1.059111 -2.041456  0.223651
C      0.339556 -1.587568 -0.083853
C      1.276787 -2.563504 -0.612094
C      1.016324 -3.892336 -0.610611
C     -0.296630 -4.421296 -0.090760
C     -1.401650 -3.402929 -0.392470
C      0.743156 -0.325950  0.158905
C     -0.142762  0.779075  0.613845
N      1.925271 -4.882812 -0.976658
C      3.170484 -4.538906 -1.684042
C      2.915933 -4.264368 -3.176098
C      4.148748 -5.712804 -1.519762
H     -1.800282 -1.287433 -0.115796
H     -1.167044 -2.088936  1.328957
H      2.210003 -2.166593 -0.996013
H     -0.207838 -4.585530  1.004735
H     -0.555214 -5.405465 -0.521857
H     -2.370594 -3.763166 -0.001818
H     -1.525612 -3.301151 -1.487778
H      1.785865 -0.046963  0.027442
H     -0.260745  0.781670  1.706249
H      0.253674  1.762190  0.325501
H     -1.149788  0.706998  0.176621
H      1.544592 -5.785760 -1.222330
H      3.608082 -3.624529 -1.199959
H      3.841129 -3.976069 -3.684660
H      2.519794 -5.146891 -3.687941
H      2.191401 -3.452269 -3.310841
H      5.121024 -5.473622 -1.962863
H      4.312257 -5.940375 -0.458205
H      3.781218 -6.625262 -1.999696
C     -0.212613  2.501794 -2.926747
C      0.878740  1.446488 -3.244628
C      0.189577  0.120064 -2.993256
C     -1.117553  0.256879 -2.727289
C     -1.483677  1.690987 -2.703552
O     -2.580756  2.153725 -2.544344
C      2.137473  1.597105 -2.397081
H     -0.347497  3.228986 -3.740478
H      0.024431  3.096972 -2.028837
H      1.158940  1.513422 -4.324142
H      0.753112 -0.797520 -3.025688
H     -1.843703 -0.504627 -2.516860
H      1.901113  1.737884 -1.333946
H      2.739165  2.454887 -2.717841
H      2.773558  0.704646 -2.463288
46
OOF_MEP_image_6
C     -1.007932 -1.981461  0.089861
C      0.410119 -1.582348 -0.208890
C      1.309764 -2.591901 -0.739415
C      1.008971 -3.912817 -0.707868
C     -0.315880 -4.387122 -0.165201
C     -1.390934 -3.345935 -0.496155
C      0.859589 -0.339686  0.049484
C      0.010927  0.776829  0.548080
N      1.877237 -4.941514 -1.065307
C      3.136990 -4.654668 -1.772122
C      2.893740 -4.413966 -3.271734
C      4.078949 -5.852821 -1.572710
H     -1.712961 -1.209973 -0.286002
H     -1.137364 -1.994947  1.194084
H      2.245077 -2.228207 -1.148475
H     -0.225231 -4.516867  0.934539
H     -0.605445 -5.377868 -0.560016
H     -2.371766 -3.667002 -0.100324
H     -1.508139 -3.267687 -1.594587
H      1.907853 -0.093043 -0.087421
H     -0.144314  0.715438  1.634322
H      0.465718  1.755432  0.345117
H     -0.983487  0.778610  0.075692
H      1.460158 -5.829300 -1.307068
H      3.602594 -3.742105 -1.311019
H      3.827842 -4.167131 -3.785337
H      2.471920 -5.298572 -3.759168
H      2.191690 -3.586215 -3.429307
H      5.060423 -5.652739 -2.014934
H      4.229902 -6.060252 -0.505246
H      3.688373 -6.765549 -2.033286
C     -0.393148  2.533579 -2.905457
C      0.818366  1.627252 -3.247521
C      0.284027  0.220486 -3.067082
C     -1.033628  0.193868 -2.822661
C     -1.566158  1.572732 -2.742973
O     -2.710561  1.898350 -2.581283
C      2.042605  1.867778 -2.370886
H     -0.600531  3.274491 -3.691482
H     -0.239723  3.105335 -1.974743
H      1.103197  1.776522 -4.317760
H      0.954163 -0.621299 -3.123825
H     -1.666686 -0.658648 -2.665524
H      1.778630  1.916438 -1.306055
H      2.550541  2.800457 -2.635123
H      2.769431  1.051515 -2.479381
46
OOF_MEP_image_7
C     -0.974032 -1.906012 -0.076579
C      0.395595 -1.548136 -0.538231
C      1.294568 -2.569822 -0.922705
C      0.982916 -3.908832 -0.811653
C     -0.332840 -4.343293 -0.218144
C     -1.410560 -3.299926 -0.532402
C      0.757332 -0.187485 -0.669946
C      0.017368  0.814375  0.186859
N      1.832050 -4.915132 -1.157690
C      3.129371 -4.674880 -1.824402
C      2.911169 -4.453806 -3.326758
C      4.038646 -5.882679 -1.570662
H     -1.703729 -1.144561 -0.478108
H     -1.037617 -1.804870  1.027098
H      2.259566 -2.259790 -1.315021
H     -0.214019 -4.449857  0.883238
H     -0.654182 -5.337841 -0.583870
H     -2.367456 -3.578361 -0.051282
H     -1.614068 -3.283908 -1.624368
H      1.839682  0.020345 -0.709170
H      0.075005  0.553903  1.249438
H      0.425963  1.826296  0.072382
H     -1.047765  0.883832 -0.091140
H      1.525296 -5.875474 -1.121137
H      3.598874 -3.758868 -1.369434
H      3.855337 -4.223806 -3.833131
H      2.482789 -5.336169 -3.814351
H      2.225026 -3.614640 -3.511935
H      5.033782 -5.713949 -2.002376
H      4.179327 -6.064085 -0.497436
H      3.647255 -6.802610 -2.018684
C     -0.389548  2.414866 -2.688786
C      0.836278  1.492980 -2.851600
C      0.334981  0.092534 -2.397963
C     -1.071534  0.108011 -2.528260
C     -1.579628  1.437701 -2.616200
O     -2.728457  1.825739 -2.638962
C      2.095717  2.038196 -2.194827
H     -0.511608  3.110853 -3.529022
H     -0.348652  3.025826 -1.777406
H      1.045166  1.381454 -3.948774
H      0.913714 -0.729530 -2.838702
H     -1.700842 -0.746327 -2.576056
H      1.943229  2.274214 -1.135753
H      2.412588  2.968270 -2.683999
H      2.926558  1.328876 -2.265595
