46
TEST
C     -0.974032 -1.906012 -0.076579
C      0.395595 -1.548136 -0.538231
C      1.294568 -2.569822 -0.922705
C      0.982916 -3.908832 -0.811653
C     -0.332840 -4.343293 -0.218144
C     -1.410560 -3.299926 -0.532402
C      0.757332 -0.187485 -0.669946
C      0.017368  0.814375  0.186859
N      1.832050 -4.915132 -1.157690
C      3.129371 -4.674880 -1.824402
C      2.911169 -4.453806 -3.326758
C      4.038646 -5.882679 -1.570662
H     -1.703729 -1.144561 -0.478108
H     -1.037617 -1.804870  1.027098
H      2.259566 -2.259790 -1.315021
H     -0.214019 -4.449857  0.883238
H     -0.654182 -5.337841 -0.583870
H     -2.367456 -3.578361 -0.051282
H     -1.614068 -3.283908 -1.624368
H      1.839682  0.020345 -0.709170
H      0.075005  0.553903  1.249438
H      0.425963  1.826296  0.072382
H     -1.047765  0.883832 -0.091140
H      1.525296 -5.875474 -1.121137
H      3.598874 -3.758868 -1.369434
H      3.855337 -4.223806 -3.833131
H      2.482789 -5.336169 -3.814351
H      2.225026 -3.614640 -3.511935
H      5.033782 -5.713949 -2.002376
H      4.179327 -6.064085 -0.497436
H      3.647255 -6.802610 -2.018684
C     -0.389548  2.414866 -2.688786
C      0.836278  1.492980 -2.851600
C      0.334981  0.092534 -2.397963
C     -1.071534  0.108011 -2.528260
C     -1.579628  1.437701 -2.616200
O     -2.728457  1.825739 -2.638962
C      2.095717  2.038196 -2.194827
H     -0.511608  3.110853 -3.529022
H     -0.348652  3.025826 -1.777406
H      1.045166  1.381454 -3.948774
H      0.913714 -0.729530 -2.838702
H     -1.700842 -0.746327 -2.576056
H      1.943229  2.274214 -1.135753
H      2.412588  2.968270 -2.683999
H      2.926558  1.328876 -2.265595
