46
structure_0_MEP_image_0
C     -0.971014 -2.264803  0.759981
C      0.256647 -1.487215  0.381130
C      1.386333 -2.223775 -0.152704
C      1.378158 -3.571597 -0.304473
C      0.184372 -4.405084  0.086385
C     -1.101467 -3.579775 -0.015333
C      0.327641 -0.152270  0.545646
C     -0.789358  0.685182  1.062496
N      2.474052 -4.316958 -0.729841
C      3.656838 -3.659512 -1.312113
C      3.385534 -3.170187 -2.745290
C      4.816787 -4.667656 -1.303959
H     -1.884454 -1.656028  0.597629
H     -0.935482 -2.470259  1.850875
H      2.257999 -1.631146 -0.410110
H      0.327825 -4.760088  1.130370
H      0.093238 -5.317192 -0.534389
H     -1.959734 -4.163630  0.366942
H     -1.335828 -3.371740 -1.078343
H      1.234660  0.393172  0.303404
H     -1.173679  0.306739  2.020304
H     -0.481750  1.724902  1.228450
H     -1.633030  0.703026  0.356791
H      2.295275 -5.246567 -1.081655
H      3.926158 -2.785049 -0.659760
H      4.262274 -2.663599 -3.160152
H      3.133288 -3.997224 -3.416029
H      2.549097 -2.459321 -2.767750
H      5.748444 -4.190701 -1.626638
H      4.982769 -5.069162 -0.295803
H      4.632088 -5.515061 -1.971540
C     -0.169612 -1.942576 -3.335356
C      0.255728 -0.489152 -3.011661
C     -1.050442  0.255029 -2.836894
C     -2.119730 -0.546554 -2.942786
C     -1.686041 -1.936640 -3.223988
O     -2.388720 -2.904464 -3.335739
C      1.113061  0.138159 -4.103067
H      0.269493 -2.664373 -2.621388
H      0.146704 -2.268287 -4.338277
H      0.812231 -0.473585 -2.037907
H     -1.036777  1.313660 -2.641371
H     -3.159912 -0.300855 -2.849942
H      0.570737  0.212630 -5.053264
H      2.018771 -0.451573 -4.286376
H      1.431663  1.150576 -3.827365
46
structure_0_MEP_image_1
C     -1.007595 -2.279127  0.673296
C      0.209133 -1.493425  0.276926
C      1.352622 -2.231098 -0.226925
C      1.368011 -3.583575 -0.330541
C      0.183578 -4.421736  0.079032
C     -1.111554 -3.617683 -0.065994
C      0.255038 -0.153227  0.392567
C     -0.868690  0.681146  0.899565
N      2.478850 -4.326675 -0.717887
C      3.656596 -3.674885 -1.315938
C      3.386028 -3.233387 -2.764406
C      4.828817 -4.667283 -1.269153
H     -1.929586 -1.690201  0.486329
H     -0.976463 -2.451476  1.769469
H      2.217134 -1.635671 -0.501108
H      0.320755 -4.736356  1.136829
H      0.112143 -5.356587 -0.509609
H     -1.968766 -4.200851  0.319866
H     -1.331341 -3.442413 -1.138530
H      1.147212  0.399662  0.119682
H     -1.136496  0.406006  1.929925
H     -0.619842  1.748674  0.905081
H     -1.772697  0.561287  0.284930
H      2.321779 -5.276639 -1.022942
H      3.911603 -2.777231 -0.689862
H      4.262122 -2.739775 -3.195483
H      3.133772 -4.081921 -3.407545
H      2.550084 -2.523455 -2.810947
H      5.755599 -4.189275 -1.603466
H      4.995359 -5.031467 -0.247089
H      4.658694 -5.538991 -1.908470
C     -0.168016 -1.897058 -3.409389
C      0.324045 -0.481099 -3.025748
C     -0.934439  0.257429 -2.621720
C     -2.034013 -0.505366 -2.707528
C     -1.669885 -1.864811 -3.172043
O     -2.408765 -2.801139 -3.320422
C      1.047493  0.230515 -4.161562
H      0.298627 -2.673356 -2.774784
H      0.062367 -2.165820 -4.450100
H      1.004254 -0.552061 -2.139163
H     -0.866721  1.280464 -2.293682
H     -3.053069 -0.256281 -2.479632
H      0.394242  0.384843 -5.027490
H      1.918977 -0.342272 -4.498629
H      1.407164  1.216625 -3.847752
46
structure_0_MEP_image_2
C     -1.045737 -2.305167  0.603023
C      0.177917 -1.514972  0.235354
C      1.334276 -2.244249 -0.251248
C      1.364341 -3.597159 -0.334537
C      0.184839 -4.439898  0.079609
C     -1.116676 -3.656950 -0.114344
C      0.224997 -0.175283  0.369049
C     -0.922028  0.663091  0.814665
N      2.481652 -4.336449 -0.710651
C      3.652183 -3.687239 -1.324207
C      3.384159 -3.302702 -2.789813
C      4.837091 -4.662594 -1.237793
H     -1.967943 -1.728326  0.380700
H     -1.040243 -2.457113  1.703412
H      2.193452 -1.643399 -0.529330
H      0.307440 -4.720852  1.147928
H      0.135368 -5.394103 -0.478808
H     -1.976452 -4.241656  0.262208
H     -1.309542 -3.503564 -1.195503
H      1.141890  0.372980  0.168100
H     -1.114386  0.540896  1.889595
H     -0.744761  1.731335  0.640582
H     -1.849481  0.394837  0.287736
H      2.330571 -5.291595 -1.002082
H      3.892823 -2.763720 -0.730699
H      4.260815 -2.821751 -3.235401
H      3.138870 -4.177181 -3.401077
H      2.545032 -2.599309 -2.865743
H      5.759291 -4.185904 -1.587463
H      5.004199 -4.986878 -0.202136
H      4.678660 -5.559820 -1.844971
C     -0.191146 -1.829818 -3.533231
C      0.359335 -0.447819 -3.102107
C     -0.844571  0.280901 -2.541427
C     -1.957307 -0.466829 -2.562070
C     -1.664998 -1.790860 -3.158614
O     -2.438072 -2.693580 -3.333840
C      0.967570  0.326258 -4.266423
H      0.319157 -2.655835 -3.006182
H     -0.061257 -2.023498 -4.611407
H      1.118832 -0.575878 -2.289075
H     -0.729100  1.286096 -2.173929
H     -2.940246 -0.222386 -2.214453
H      0.212257  0.543751 -5.033686
H      1.778495 -0.237519 -4.746865
H      1.382747  1.287015 -3.935339
46
structure_0_MEP_image_3
C     -1.068862 -2.315124  0.541934
C      0.167214 -1.528302  0.209433
C      1.323980 -2.255184 -0.279100
C      1.357032 -3.608489 -0.363102
C      0.177872 -4.450482  0.052467
C     -1.123974 -3.673931 -0.164315
C      0.227332 -0.194025  0.383360
C     -0.919754  0.648550  0.819661
N      2.474527 -4.346651 -0.741545
C      3.640781 -3.696804 -1.362486
C      3.370956 -3.328971 -2.831378
C      4.832154 -4.662575 -1.265002
H     -1.984623 -1.740701  0.288424
H     -1.097985 -2.457732  1.643477
H      2.179565 -1.650977 -0.559196
H      0.293727 -4.716790  1.124571
H      0.137759 -5.412082 -0.493277
H     -1.987398 -4.260553  0.203458
H     -1.298807 -3.529876 -1.249919
H      1.156984  0.346522  0.227756
H     -1.077924  0.582204  1.905231
H     -0.758889  1.707328  0.582598
H     -1.860015  0.344377  0.336646
H      2.321842 -5.300435 -1.036807
H      3.875648 -2.765739 -0.780679
H      4.245021 -2.851066 -3.283763
H      3.128649 -4.209384 -3.433310
H      2.529941 -2.630027 -2.915874
H      5.751216 -4.184425 -1.619461
H      4.999956 -4.974194 -0.226123
H      4.680006 -5.567556 -1.860768
C     -0.211199 -1.777786 -3.600109
C      0.332833 -0.390752 -3.176280
C     -0.870612  0.329030 -2.603088
C     -1.976142 -0.429556 -2.609386
C     -1.676671 -1.758056 -3.193999
O     -2.438555 -2.676159 -3.336211
C      0.937027  0.375263 -4.347593
H      0.317946 -2.605942 -3.096280
H     -0.107987 -1.957735 -4.682305
H      1.093054 -0.516532 -2.367334
H     -0.759346  1.333864 -2.229824
H     -2.960074 -0.190761 -2.255917
H      0.175135  0.609080 -5.101133
H      1.714823 -0.213415 -4.849697
H      1.389954  1.321609 -4.025348
46
structure_0_MEP_image_4
C     -1.071162 -2.302891  0.507920
C      0.146685 -1.513448  0.121026
C      1.298865 -2.245354 -0.371051
C      1.332981 -3.600071 -0.440909
C      0.157022 -4.441815 -0.015039
C     -1.145346 -3.658875 -0.201558
C      0.189246 -0.172619  0.244268
C     -0.948843  0.662513  0.718813
N      2.453955 -4.338415 -0.805560
C      3.624353 -3.691614 -1.422661
C      3.349697 -3.294918 -2.883582
C      4.806745 -4.670873 -1.348697
H     -1.996001 -1.728778  0.288970
H     -1.062622 -2.445106  1.609287
H      2.149478 -1.642109 -0.669188
H      0.287045 -4.720159  1.053272
H      0.104450 -5.395067 -0.574546
H     -2.002038 -4.243046  0.181383
H     -1.345866 -3.509140 -1.281924
H      1.090770  0.383108  0.003313
H     -1.121271  0.520544  1.795529
H     -0.770620  1.731854  0.551949
H     -1.886832  0.411352  0.201464
H      2.308402 -5.298294 -1.081816
H      3.870427 -2.773936 -0.822494
H      4.224970 -2.815593 -3.332684
H      3.095439 -4.162789 -3.499976
H      2.514288 -2.586329 -2.950006
H      5.729002 -4.193676 -1.696938
H      4.977581 -5.004919 -0.317036
H      4.645749 -5.562408 -1.962858
C     -0.207530 -1.793179 -3.574692
C      0.341817 -0.406649 -3.157015
C     -0.858007  0.310829 -2.574360
C     -1.973539 -0.431962 -2.609751
C     -1.685864 -1.752887 -3.215574
O     -2.459011 -2.656671 -3.383384
C      0.937721  0.378853 -4.319245
H      0.290726 -2.610958 -3.020793
H     -0.065678 -2.009839 -4.642853
H      1.114176 -0.537643 -2.357475
H     -0.741968  1.303040 -2.170337
H     -2.956523 -0.188181 -2.256992
H      0.192807  0.590390 -5.095291
H      1.757573 -0.170456 -4.794638
H      1.341507  1.340469 -3.981846
46
structure_0_MEP_image_5
C     -1.067038 -2.292157  0.469153
C      0.151088 -1.506331  0.075764
C      1.288195 -2.241105 -0.447421
C      1.304445 -3.594381 -0.548661
C      0.123758 -4.431678 -0.126670
C     -1.171307 -3.628224 -0.273836
C      0.202235 -0.167403  0.215038
C     -0.919032  0.665650  0.730709
N      2.411381 -4.336831 -0.946422
C      3.586045 -3.685180 -1.549991
C      3.302400 -3.227290 -2.990672
C      4.753966 -4.683364 -1.526083
H     -1.987296 -1.699982  0.282152
H     -1.038131 -2.468159  1.565355
H      2.144462 -1.642643 -0.740657
H      0.265352 -4.738702  0.932414
H      0.051274 -5.370042 -0.708067
H     -2.029168 -4.211278  0.108732
H     -1.387613 -3.448822 -1.346495
H      1.099935  0.383849 -0.047410
H     -1.172090  0.396308  1.765434
H     -0.673857  1.733926  0.726838
H     -1.829929  0.537567  0.128384
H      2.251601 -5.285873 -1.249653
H      3.851994 -2.795620 -0.917155
H      4.178768 -2.741092 -3.429311
H      3.030439 -4.066882 -3.637462
H      2.474708 -2.506925 -3.019562
H      5.679117 -4.206126 -1.866140
H      4.930524 -5.058295 -0.509648
H      4.573145 -5.547689 -2.172478
C     -0.224899 -1.778768 -3.585648
C      0.258704 -0.355704 -3.214551
C     -1.004411  0.370607 -2.799370
C     -2.098303 -0.401977 -2.875093
C     -1.726786 -1.759094 -3.343630
O     -2.460853 -2.700499 -3.486647
C      0.968521  0.352189 -4.361834
H      0.246312 -2.543260 -2.938160
H      0.005541 -2.057319 -4.624036
H      0.948813 -0.415539 -2.333992
H     -0.940874  1.393390 -2.466666
H     -3.119405 -0.163481 -2.638074
H      0.315666  0.473504 -5.233093
H      1.854224 -0.209658 -4.679249
H      1.304904  1.351444 -4.067089
46
structure_0_MEP_image_6
C     -1.065672 -2.285728  0.436362
C      0.159139 -1.506277  0.051136
C      1.279396 -2.238082 -0.508797
C      1.276912 -3.587588 -0.647762
C      0.090371 -4.420743 -0.234692
C     -1.196945 -3.598255 -0.343260
C      0.238463 -0.174751  0.236177
C     -0.864537  0.657200  0.790262
N      2.368739 -4.332326 -1.082178
C      3.545391 -3.675473 -1.676890
C      3.252253 -3.159491 -3.096218
C      4.697218 -4.692353 -1.707197
H     -1.980188 -1.676928  0.281502
H     -1.022632 -2.494891  1.526588
H      2.137696 -1.640661 -0.796389
H      0.239852 -4.756077  0.814832
H     -0.001319 -5.343460 -0.838822
H     -2.056470 -4.182874  0.033937
H     -1.426327 -3.387487 -1.407492
H      1.143768  0.370683 -0.012081
H     -1.208453  0.276730  1.762687
H     -0.557678  1.699137  0.943060
H     -1.733996  0.667950  0.116422
H      2.190441 -5.266860 -1.420084
H      3.833076 -2.815073 -1.013594
H      4.129079 -2.663631 -3.523498
H      2.967754 -3.971900 -3.772003
H      2.430291 -2.431715 -3.090206
H      5.626582 -4.216784 -2.038569
H      4.878421 -5.112014 -0.709208
H      4.494506 -5.526591 -2.386031
C     -0.255079 -1.756199 -3.603484
C      0.156982 -0.295542 -3.296091
C     -1.156582  0.432573 -3.105320
C     -2.217338 -0.381345 -3.201087
C     -1.770200 -1.766251 -3.488216
O     -2.463147 -2.741163 -3.600971
C      0.988559  0.328928 -4.409339
H      0.190775 -2.465394 -2.879738
H      0.065232 -2.090425 -4.601879
H      0.730789 -0.265607 -2.333382
H     -1.153895  1.490651 -2.905876
H     -3.259810 -0.149848 -3.096626
H      0.445163  0.344311 -5.361814
H      1.919361 -0.228096 -4.569658
H      1.263024  1.363434 -4.172249
