46
structure_1_MEP_image_0
C     -2.150160 -1.758073 -0.644843
C     -0.844565 -1.024168 -0.766651
C      0.366925 -1.820546 -0.815461
C      0.364182 -3.172215 -0.691534
C     -0.923962 -3.950558 -0.577167
C     -2.062190 -3.167806 -1.240826
C     -0.785832  0.320706 -0.781900
C     -1.978257  1.208264 -0.700275
N      1.508039 -3.948392 -0.551248
C      2.844327 -3.384416 -0.824344
C      3.062459 -3.161801 -2.330225
C      3.895262 -4.352381 -0.265150
H     -2.964559 -1.195735 -1.143875
H     -2.435661 -1.811226  0.426030
H      1.291273 -1.267552 -0.948310
H     -1.151231 -4.123667  0.496201
H     -0.839083 -4.954199 -1.036180
H     -3.021386 -3.700632 -1.115726
H     -1.885195 -3.097575 -2.332383
H      0.166399  0.837384 -0.858839
H     -1.701833  2.270009 -0.698784
H     -2.652550  1.053834 -1.555497
H     -2.560262  1.022428  0.213291
H      1.426485 -4.938269 -0.737620
H      2.921876 -2.403166 -0.280905
H      4.022406 -2.671459 -2.519727
H      3.055649 -4.104014 -2.886027
H      2.275241 -2.525757 -2.754720
H      4.905810 -3.952975 -0.404931
H      3.756338 -4.504410  0.817758
H      3.857450 -5.334652 -0.744320
C      1.206452 -2.478390  2.805525
C      0.806277 -1.022662  2.460280
C      2.124380 -0.313181  2.240073
C      3.180407 -1.125925  2.387184
C      2.725143 -2.489309  2.758204
O      3.420400 -3.442646  2.984956
C     -0.012155 -0.355477  3.559194
H      0.800255 -3.199417  2.071797
H      0.836937 -2.802082  3.789834
H      0.219141 -1.008398  1.504071
H      2.128731  0.733098  1.984411
H      4.224677 -0.904087  2.282579
H      0.530512 -0.327098  4.511169
H     -0.953119 -0.891916  3.730757
H     -0.269620  0.677231  3.293861
46
structure_1_MEP_image_1
C     -2.010162 -1.761114 -0.518346
C     -0.686052 -1.063047 -0.666562
C      0.496091 -1.888144 -0.799985
C      0.459710 -3.243901 -0.723987
C     -0.845031 -3.988607 -0.569834
C     -1.986896 -3.153956 -1.158269
C     -0.584703  0.278825 -0.613305
C     -1.746310  1.192244 -0.436974
N      1.578688 -4.052368 -0.683682
C      2.932060 -3.510248 -0.896582
C      3.216608 -3.273309 -2.389174
C      3.935117 -4.505792 -0.300629
H     -2.816153 -1.156600 -0.979926
H     -2.273804 -1.839863  0.557831
H      1.429285 -1.355902 -0.957769
H     -1.027028 -4.183612  0.507577
H     -0.810766 -4.981230 -1.057481
H     -2.955268 -3.663611 -1.010591
H     -1.851344 -3.053869 -2.253050
H      0.380333  0.767493 -0.706188
H     -1.438183  2.241045 -0.341337
H     -2.427829  1.123385 -1.297952
H     -2.328244  0.945566  0.462403
H      1.474872 -5.042246 -0.841030
H      3.008092 -2.535137 -0.341365
H      4.197778 -2.808422 -2.532501
H      3.206191 -4.207954 -2.956311
H      2.465396 -2.610142 -2.836196
H      4.960905 -4.137928 -0.405609
H      3.752108 -4.642079  0.778358
H      3.878030 -5.487971 -0.775766
C      1.034774 -2.368274  2.787139
C      0.506109 -0.943264  2.512245
C      1.730775 -0.168041  2.080902
C      2.848566 -0.907328  2.077387
C      2.522881 -2.290065  2.505569
O      3.296509 -3.198981  2.625310
C     -0.117812 -0.285023  3.733341
H      0.559376 -3.115949  2.132566
H      0.834113 -2.702255  3.811305
H     -0.236144 -0.965242  1.677983
H      1.634177  0.877423  1.849231
H      3.856755 -0.620122  1.828439
H      0.600043 -0.200280  4.548551
H     -0.980094 -0.837884  4.105357
H     -0.456657  0.727720  3.506437
46
structure_1_MEP_image_2
C     -1.874427 -1.772373 -0.422275
C     -0.543025 -1.099561 -0.608713
C      0.610340 -1.949049 -0.818717
C      0.547822 -3.306407 -0.769953
C     -0.767607 -4.024789 -0.574656
C     -1.915020 -3.151106 -1.091069
C     -0.410259  0.238481 -0.517111
C     -1.522134  1.176404 -0.200187
N      1.644236 -4.140078 -0.814165
C      3.020473 -3.639942 -0.960651
C      3.368200 -3.395570 -2.438609
C      3.978126 -4.665084 -0.336593
H     -2.691331 -1.143355 -0.828774
H     -2.078179 -1.868159  0.663477
H      1.552319 -1.436637 -0.982779
H     -0.906323 -4.239422  0.505366
H     -0.785097 -5.007891 -1.082434
H     -2.887922 -3.639756 -0.904993
H     -1.829276 -3.034367 -2.189292
H      0.555798  0.710825 -0.667329
H     -1.154920  2.192929 -0.008163
H     -2.238492  1.243780 -1.030816
H     -2.085992  0.861408  0.688257
H      1.511674 -5.124983 -0.961516
H      3.110086 -2.673282 -0.391200
H      4.367282 -2.958064 -2.534508
H      3.354009 -4.320612 -3.021307
H      2.652955 -2.704259 -2.901003
H      5.015323 -4.320850 -0.412453
H      3.762000 -4.788170  0.737108
H      3.915716 -5.646557 -0.811743
C      0.893210 -2.232250  2.809704
C      0.264394 -0.828260  2.644496
C      1.355890 -0.004188  1.993265
C      2.484041 -0.699791  1.793232
C      2.313625 -2.086999  2.285185
O      3.129161 -2.969041  2.267021
C     -0.196950 -0.209878  3.958619
H      0.356438 -2.985736  2.204813
H      0.886285 -2.599684  3.845278
H     -0.610757 -0.893634  1.949977
H      1.154430  1.019083  1.727551
H      3.405989 -0.379127  1.349373
H      0.628740 -0.063731  4.664038
H     -0.944466 -0.848018  4.445946
H     -0.650511  0.775750  3.797865
46
structure_1_MEP_image_3
C     -1.739713 -1.815348 -0.289012
C     -0.422156 -1.145673 -0.571171
C      0.713818 -1.999400 -0.847594
C      0.644806 -3.357695 -0.800055
C     -0.664957 -4.068786 -0.549447
C     -1.830981 -3.176899 -0.988116
C     -0.284302  0.193650 -0.515762
C     -1.349491  1.136316 -0.072968
N      1.716258 -4.202718 -0.990929
C      3.111163 -3.728695 -0.997021
C      3.553527 -3.486054 -2.449430
C      4.004609 -4.781838 -0.324254
H     -2.578652 -1.171493 -0.620791
H     -1.867253 -1.940057  0.804638
H      1.649793 -1.493953 -1.061434
H     -0.747916 -4.304457  0.531117
H     -0.711467 -5.038306 -1.083218
H     -2.796445 -3.663534 -0.764931
H     -1.800301 -3.032245 -2.086773
H      0.656747  0.663695 -0.788863
H     -0.929462  2.109425  0.214034
H     -2.083655  1.323221 -0.868086
H     -1.901172  0.752846  0.796010
H      1.586138 -5.194242 -0.888121
H      3.181717 -2.768695 -0.413558
H      4.567618 -3.079073 -2.488216
H      3.535475 -4.411496 -3.033370
H      2.880977 -2.775714 -2.946711
H      5.055718 -4.473476 -0.356186
H      3.740238 -4.894971  0.737748
H      3.932339 -5.760145 -0.806666
C      0.755467 -2.109396  2.876487
C      0.108343 -0.702456  2.826781
C      1.124535  0.154472  2.098581
C      2.210729 -0.537021  1.723711
C      2.089716 -1.947375  2.160681
O      2.887831 -2.830468  1.993478
C     -0.208108 -0.133628  4.206073
H      0.136198 -2.866058  2.362750
H      0.904825 -2.475717  3.903035
H     -0.828182 -0.743601  2.218182
H      0.908881  1.195762  1.922581
H      3.068369 -0.196484  1.176019
H      0.705411  0.046943  4.786630
H     -0.836439 -0.820127  4.788462
H     -0.744750  0.821772  4.129566
46
structure_1_MEP_image_4
C     -1.710158 -1.837520 -0.219099
C     -0.396490 -1.160738 -0.501514
C      0.741748 -2.010474 -0.778482
C      0.687953 -3.367386 -0.708515
C     -0.613303 -4.092071 -0.453459
C     -1.787134 -3.211026 -0.895229
C     -0.256105  0.176773 -0.417676
C     -1.356002  1.109023 -0.045680
N      1.773428 -4.198533 -0.903115
C      3.157691 -3.687673 -0.884546
C      3.617170 -3.420713 -2.327413
C      4.069327 -4.713350 -0.195199
H     -2.560055 -1.212693 -0.559660
H     -1.829167 -1.942155  0.878766
H      1.668001 -1.499104 -1.018367
H     -0.692396 -4.340058  0.623849
H     -0.651050 -5.059621 -0.993672
H     -2.749969 -3.700797 -0.667123
H     -1.753141 -3.078763 -1.996054
H      0.701018  0.653459 -0.618987
H     -0.971121  2.091983  0.255341
H     -2.038666  1.272166 -0.891867
H     -1.955109  0.722469  0.790103
H      1.667727 -5.184440 -0.731004
H      3.196686 -2.725933 -0.298807
H      4.624842 -2.995629 -2.345580
H      3.622802 -4.336074 -2.927511
H      2.941069 -2.713391 -2.824403
H      5.110853 -4.372964 -0.204138
H      3.787379 -4.833770  0.861944
H      4.039259 -5.695441 -0.673954
C      0.727682 -2.132775  2.993155
C      0.169722 -0.691066  2.894478
C      1.248288  0.078055  2.158399
C      2.299840 -0.686835  1.831374
C      2.085279 -2.073310  2.304417
O      2.835385 -3.004813  2.189352
C     -0.096685 -0.052662  4.253952
H      0.072103 -2.861203  2.485996
H      0.834757 -2.482414  4.031239
H     -0.767033 -0.690023  2.283750
H      1.103443  1.127688  1.958945
H      3.194570 -0.410809  1.306927
H      0.830097  0.077202  4.825195
H     -0.777807 -0.662729  4.855700
H     -0.551909  0.939317  4.146752
46
structure_1_MEP_image_5
C     -1.627051 -1.812599 -0.149372
C     -0.263409 -1.211355 -0.285033
C      0.804115 -2.009594 -0.671774
C      0.734149 -3.409131 -0.662706
C     -0.594225 -4.091887 -0.452963
C     -1.733627 -3.158386 -0.874185
C     -0.021750  0.145358  0.095559
C     -1.201716  1.069145  0.282757
N      1.804079 -4.204326 -0.805754
C      3.201682 -3.695762 -0.832814
C      3.605015 -3.428894 -2.286085
C      4.106347 -4.732191 -0.165570
H     -2.399810 -1.116930 -0.540039
H     -1.863969 -1.931826  0.933218
H      1.766732 -1.523688 -0.854636
H     -0.696082 -4.355922  0.626154
H     -0.664486 -5.050010 -1.003781
H     -2.712919 -3.628492 -0.666914
H     -1.696763 -2.995421 -1.970333
H      0.792737  0.636199 -0.471242
H     -0.872560  2.077685  0.568623
H     -1.780410  1.172174 -0.643420
H     -1.879503  0.723131  1.072473
H      1.708899 -5.210577 -0.747276
H      3.251266 -2.738974 -0.222818
H      4.614072 -3.000422 -2.329707
H      3.608116 -4.341329 -2.890391
H      2.925456 -2.714686 -2.767205
H      5.150738 -4.394520 -0.180113
H      3.840808 -4.832944  0.904592
H      4.065820 -5.715595 -0.636885
C      0.628506 -2.132908  2.839751
C     -0.051227 -0.752183  2.699869
C      0.827371  0.025931  1.686536
C      2.038675 -0.707362  1.508342
C      1.950252 -2.001533  2.053030
O      2.713313 -2.954103  1.962277
C     -0.084030 -0.007425  4.037255
H      0.021609 -2.948307  2.433297
H      0.850365 -2.395040  3.884214
H     -1.091008 -0.870044  2.333312
H      0.890039  1.104762  1.876888
H      2.910830 -0.323913  1.038269
H      0.929981  0.134817  4.435384
H     -0.656898 -0.565959  4.785079
H     -0.538277  0.983099  3.934154
46
structure_1_MEP_image_6
C     -1.565249 -1.848535 -0.057879
C     -0.202573 -1.253028 -0.185170
C      0.851592 -2.015274 -0.613140
C      0.804536 -3.434329 -0.575379
C     -0.520097 -4.119923 -0.367357
C     -1.668002 -3.194634 -0.784765
C      0.069757  0.121085  0.276863
C     -1.146187  1.029239  0.406292
N      1.889712 -4.199328 -0.649393
C      3.281170 -3.660482 -0.669326
C      3.680678 -3.383593 -2.120120
C      4.199128 -4.682502 -0.002113
H     -2.334745 -1.149517 -0.448874
H     -1.809760 -1.971856  1.023990
H      1.815153 -1.528157 -0.799456
H     -0.616200 -4.374365  0.717929
H     -0.587269 -5.083167 -0.909145
H     -2.642152 -3.672920 -0.569266
H     -1.644298 -3.032425 -1.880990
H      0.818407  0.614851 -0.393534
H     -0.844010  2.035936  0.724668
H     -1.675469  1.135651 -0.546123
H     -1.858587  0.667391  1.156018
H      1.822278 -5.204500 -0.518127
H      3.303822 -2.706959 -0.046629
H      4.686020 -2.943779 -2.160086
H      3.698895 -4.294517 -2.727051
H      2.997765 -2.674691 -2.603267
H      5.236079 -4.322179  0.001758
H      3.922821 -4.794735  1.066869
H      4.186700 -5.662746 -0.480467
C      0.581714 -2.122425  2.942572
C     -0.026911 -0.714052  2.779707
C      0.847538 -0.002723  1.695253
C      2.051199 -0.831129  1.549047
C      1.893736 -2.082689  2.127202
O      2.573052 -3.107787  2.026492
C      0.028208  0.071514  4.092213
H     -0.074826 -2.915142  2.574002
H      0.817375 -2.367618  3.987687
H     -1.082964 -0.788563  2.454343
H      1.065337  1.045567  1.981176
H      2.933981 -0.483258  1.080450
H      1.066631  0.180469  4.433773
H     -0.529932 -0.436792  4.883972
H     -0.389377  1.075596  3.974915
