21
Hypermolecule originated from Resources/C
C     -2.088438 0.0096   0.008125
H     -3.158438 -0.0031  -0.002075
C     -0.887138 0.0053   0.004925
C     0.657962 -0.0002  0.000725
C     1.338462 -0.2837  -1.137175
C     2.014962 -0.5654  -2.268275
H     2.274162 0.2133   -2.952575
H     2.299062 -1.5779  -2.481175
C     1.403262 0.3196   1.299825
H     0.719362 0.5179   2.093925
D     -2.097858 0.00018  1.008036
D     -2.100395 1.009485 0.017432
D     -2.079018 0.01902  -0.991786
D     -2.076481 -0.990285 -0.001182
D     2.203379 -0.165529 -0.649369
D     1.341306 0.687019 -1.377375
D     0.47359  -0.40189 -1.625055
D     1.335662 -1.254438 -0.897049
D     2.398854 0.339815 1.391412
D     1.405661 1.290288 1.059494
D     1.400863 -0.651088 1.540156
