7
Title
C         -3.97740        0.45840        0.00000
H         -3.62080       -0.55040        0.00000
H         -3.62080        0.96280       -0.87370
H         -5.04740        0.45840        0.00000
C         -3.46410        1.18430        1.25740
C         -3.06370        1.75060        2.23820
H         -2.70700        2.25500        3.11180
