31
Structure1
C          2.35380       -1.15300       -0.18900
C          1.87070        0.16360        0.23070
C          0.47140        0.34530        0.57750
C         -0.43040       -0.60020        0.44320
C         -0.02880       -1.91070       -0.07990
C          1.20930       -1.84810       -0.91180
C          2.71060        1.17170        0.28990
C          4.13860        1.08590       -0.04020
N         -1.80420       -0.35050        0.80770
C         -2.51060        0.80580        0.34980
C         -3.91750        0.77830        0.90090
C         -2.62810        0.86930       -1.16010
H          3.18820       -1.10170       -0.92170
H          2.63550       -1.72300        0.72530
H          0.14860        1.31880        0.97110
H          0.12160       -2.58480        0.79730
H         -0.84190       -2.31520       -0.72550
H          1.01360       -1.27140       -1.83130
H          1.51790       -2.88290       -1.16790
H          2.31590        2.12910        0.60450
H          4.69360        1.70240        0.72510
H          4.34510        1.59140       -1.01180
H          4.56270        0.07740        0.01770
H         -2.25120       -1.04580        1.41360
H         -2.05370        1.75880        0.68810
H         -3.91440        0.63740        2.00020
H         -4.38600        1.75280        0.66890
H         -4.53000       -0.02940        0.43010
H         -3.58840        1.35990       -1.45550
H         -2.59730       -0.16890       -1.52690
H         -1.81480        1.43800       -1.62000
31
Structure1
C          2.36810       -1.15920       -0.19390
C          1.86580        0.15500        0.22970
C          0.45350        0.27790        0.56450
C         -0.29830       -0.75550        0.90210
C          0.32270       -2.08020        0.93930
C          1.40790       -2.28010       -0.07310
C          2.70390        1.17560        0.29230
C          4.14910        1.08580       -0.04250
N         -1.68260       -0.56440        1.21990
C         -2.28510       -0.90940        2.45660
C         -1.68820       -0.19840        3.64710
C         -2.26470       -2.42280        2.66770
H          2.68780       -1.05620       -1.26990
H          3.32400       -1.42330        0.34570
H         -0.02530        1.26860        0.54120
H         -0.41540       -2.90680        0.79580
H          0.76980       -2.23630        1.94540
H          0.92590       -2.45830       -1.06810
H          1.96090       -3.21030        0.17170
H          2.31710        2.13380        0.60530
H          4.35130        0.30110       -0.81260
H          4.43830        2.04890       -0.51490
H          4.77810        0.94380        0.85930
H         -2.25450       -0.13850        0.46080
H         -3.35710       -0.63060        2.42750
H         -1.49200        0.84370        3.41060
H         -0.78470       -0.69810        4.04150
H         -2.44160       -0.22120        4.47150
H         -3.03270       -2.71040        3.44450
H         -2.62640       -2.88250        1.72820
H         -1.30410       -2.78950        3.02190
