31
Structure1
C         -2.26460       -0.92880       -0.86770
C         -1.84720        0.25770       -0.10660
C         -0.47090        0.71780       -0.27900
C          0.40880       -0.15460       -0.73800
C          0.16050       -1.54530       -1.09780
C         -1.24840       -2.00630       -0.94200
C         -2.70520        0.86810        0.69810
C         -4.07810        0.33770        0.81470
N          1.75080        0.32500       -0.89690
C          2.43360        1.10250        0.07890
C          3.82120        1.42870       -0.42230
C          2.61870        0.23980        1.33280
H         -2.55430       -0.63640       -1.91420
H         -3.20870       -1.38490       -0.44730
H         -0.22600        1.74650       -0.02650
H          0.52140       -1.70320       -2.13860
H          0.82660       -2.19250       -0.46050
H         -1.50870       -2.65360       -1.83020
H         -1.34870       -2.67680       -0.05300
H         -2.35840        1.72760        1.23230
H         -4.09750       -0.66640        1.29030
H         -4.67530        1.08640        1.39910
H         -4.57370        0.23660       -0.16850
H          2.23760        0.07430       -1.79590
H          1.88570        2.01420        0.38300
H          4.47620        0.56520       -0.18390
H          3.79130        1.47070       -1.54860
H          4.22310        2.35800        0.01300
H          3.26560        0.75160        2.07550
H          3.09960       -0.72300        1.01990
H          1.64500       -0.03680        1.78140
31
Structure1
C         -2.11930       -0.91730       -0.91140
C         -1.57460        0.02140        0.06150
C         -0.11240        0.26190        0.00840
C          0.68160       -0.52660       -0.68980
C          0.11310       -1.68410       -1.44410
C         -1.20430       -2.14970       -0.89660
C         -2.32150        0.62730        0.94060
C         -3.75770        0.36440        0.96160
N          2.08060       -0.32580       -0.76170
C          2.83590        0.69100       -0.10360
C          2.71820        0.64100        1.40860
C          2.39740        2.03930       -0.66730
H         -3.13390       -1.27450       -0.70850
H         -2.02740       -0.46880       -1.93790
H          0.26180        1.10250        0.56270
H         -0.08940       -1.28900       -2.47800
H          0.85250       -2.50650       -1.53990
H         -1.12310       -2.47150        0.15840
H         -1.58470       -2.93440       -1.55730
H         -1.86310        1.31600        1.64100
H         -4.24330        0.63120       -0.02170
H         -4.26030        1.02800        1.71570
H         -4.03940       -0.66640        1.23570
H          2.62890       -1.00120       -1.36840
H          3.91740        0.56740       -0.41510
H          1.95990       -0.12360        1.73300
H          2.50940        1.64110        1.84130
H          3.69660        0.30180        1.80570
H          3.19350        2.53540       -1.24080
H          1.53270        1.92220       -1.34940
H          2.07500        2.64740        0.21880
