31
Structure1
C         -2.23220        0.05760       -1.28370
C         -1.84840       -0.09760        0.14160
C         -0.42380       -0.30560        0.41520
C          0.47660       -0.37590       -0.53850
C          0.08750       -0.24580       -1.96610
C         -1.31440       -0.85590       -2.09060
C         -2.78370       -0.04200        1.06210
C         -4.22180        0.17300        0.71720
N          1.85110       -0.57770       -0.25330
C          2.55270        0.03030        0.82900
C          3.99780       -0.41250        0.82530
C          2.50700        1.54610        0.61240
H         -3.29460       -0.14970       -1.46540
H         -2.02520        1.09000       -1.65540
H         -0.13200       -0.40060        1.43950
H          0.80180       -0.76310       -2.63990
H         -0.03660        0.83120       -2.21290
H         -1.64550       -0.89560       -3.14020
H         -1.23850       -1.85940       -1.63180
H         -2.48230       -0.15900        2.11500
H         -4.71090       -0.76250        0.38850
H         -4.75570        0.51680        1.63030
H         -4.24450        0.97380       -0.05210
H          2.38020       -1.22510       -0.89390
H          2.14080       -0.23810        1.82170
H          4.17640       -1.28180        1.49700
H          4.32170       -0.76180       -0.19360
H          4.69550        0.43690        1.07100
H          1.79020        1.81090       -0.20290
H          3.48920        1.94350        0.30380
H          2.12150        1.99960        1.54600
31
Structure1
C         -2.09280       -0.61540       -1.17700
C         -1.82320        0.36980       -0.10640
C         -0.49720        0.93310       -0.00380
C          0.52700        0.56300       -0.73890
C          0.34510       -0.50580       -1.75590
C         -0.82080       -1.40570       -1.40420
C         -2.80290        0.70090        0.71880
C         -4.16520        0.13550        0.62940
N          1.82710        1.13080       -0.62270
C          2.83800        0.61710        0.25810
C          3.22230       -0.80650       -0.02650
C          2.43990        0.70090        1.71510
H         -2.86630       -1.35900       -0.86910
H         -2.39660       -0.04940       -2.07830
H         -0.33850        1.71820        0.73430
H          0.14090       -0.08840       -2.76400
H          1.23550       -1.14800       -1.82800
H         -0.99940       -2.06860       -2.27540
H         -0.63620       -2.04510       -0.54060
H         -2.60210        1.42830        1.50860
H         -4.42560       -0.07800       -0.42100
H         -4.16270       -0.81690        1.19390
H         -4.91570        0.85560        1.04040
H          2.00020        1.97600       -1.24380
H          3.74710        1.24020        0.13870
H          2.49100       -1.54810        0.35600
H          3.51020       -0.97890       -1.08160
H          4.16700       -0.99610        0.56390
H          2.57350        1.73430        2.08370
H          3.09040        0.01960        2.30900
H          1.39010        0.38660        1.88220
