19
Weird cyclopropylcyclopropane thing
C          1.59190        0.06730       -0.99580
C          0.84730        0.12160        0.28670
C          1.43830       -1.15890       -0.14420
C         -0.64020        0.38410        0.15260
C         -1.44250       -0.49050       -0.77680
C         -1.64030       -0.53690        0.69350
O          1.40490        0.73120        1.41050
N         -0.95590        1.79590        0.03660
H          1.01130        0.04190       -1.94140
H          2.57060        0.59840       -1.01070
H          2.35400       -1.49050        0.38720
H          0.81170       -2.00770       -0.48820
H         -2.26410       -0.03490       -1.37940
H         -0.91250       -1.29970       -1.31870
H         -1.31560       -1.49230        1.17820
H         -2.55120       -0.12700        1.15100
H          0.87810        0.41250        2.18860
H         -0.16820        2.31620       -0.42950
H         -1.01730        2.16910        0.99980
19
Weird cyclopropylcyclopropane thing
C         -0.78470        0.58800        2.74790
C          0.06460        0.22220        1.51710
C         -0.37720       -0.79790        2.46730
C         -0.60250        0.49270        0.21270
C         -1.59940       -0.42680       -0.38040
C         -0.18440       -0.49010       -0.92010
O          1.38940        0.69160        1.61390
N         -0.73990        1.88680       -0.18850
H         -1.86600        0.81190        2.56650
H         -0.33380        1.20750        3.52770
H         -1.13730       -1.56630        2.20290
H          0.41920       -1.20860        3.14440
H         -2.32370       -0.03890       -1.09860
H         -1.96700       -1.30620        0.20490
H          0.04000       -0.02940       -1.90190
H          0.38130       -1.38480       -0.61510
H          1.98510        0.05730        1.11730
H         -0.02600        2.42030        0.34740
H         -1.72210        2.15990        0.02550
19
Weird cyclopropylcyclopropane thing
C          1.55520        2.08710        1.01020
C          0.71820        0.88650        1.09780
C          0.53520        1.99210        2.11930
C         -0.47760        0.66670        0.21830
C         -1.32900       -0.52430        0.65130
C         -0.60130       -0.53790       -0.63430
O          1.32870       -0.29890        1.52100
N         -1.13450        1.85400       -0.23900
H          2.59580        2.01830        1.35800
H          1.36130        2.84490        0.20540
H          0.88360        1.72050        3.13640
H         -0.36350        2.60940        2.11180
H         -0.94480       -1.19890        1.43470
H         -2.42370       -0.39690        0.67660
H          0.28910       -1.19040       -0.76460
H         -1.23120       -0.45640       -1.54190
H          1.92260       -0.05270        2.26880
H         -0.42250        2.45590       -0.71160
H         -1.58620        2.41930        0.49000
19
Weird cyclopropylcyclopropane thing
C          0.21490       -1.75500        0.85690
C          0.25240       -0.22000        0.85300
C         -0.43630       -0.94080        1.94130
C         -0.45120        0.47120       -0.25270
C         -1.17000       -0.23840       -1.30270
C          0.22880        0.26220       -1.62410
O          1.50400        0.35330        1.17040
N         -0.74630        1.87160        0.00250
H         -0.51150       -2.28100        0.21190
H          1.17520       -2.27060        1.06390
H         -1.54720       -0.93890        2.03880
H          0.08170       -0.98030        2.92180
H         -1.95970        0.31080       -1.86260
H         -1.27860       -1.31660       -1.38210
H          1.03980       -0.48110       -1.69700
H          0.35220        1.11880       -2.28250
H          1.34200        1.14720        1.76150
H          0.06050        2.31710        0.53330
H         -1.61290        1.99020        0.57720
19
Weird cyclopropylcyclopropane thing
C          1.98620       -0.14330       -0.55360
C          0.90870        0.13950        0.38610
C          1.33010       -1.28730        0.17390
C         -0.48790        0.48690       -0.05120
C         -1.53920       -0.45220        0.46360
C         -1.26020       -0.38790       -0.98470
O          1.22780        0.72960        1.63420
N         -0.80360        1.89990       -0.22700
H          3.02230        0.14030       -0.21520
H          1.79780        0.01930       -1.62760
H          0.76240       -1.97930       -0.45280
H          1.89930       -1.81290        0.97340
H         -1.23700       -1.35840        0.99590
H         -2.43500        0.03720        0.90990
H         -0.78310       -1.23510       -1.47790
H         -2.07610        0.05390       -1.59640
H          1.02100        0.11830        2.37710
H         -1.55300        2.11410        0.47220
H          0.03560        2.44240        0.05390
