19
Weird cyclopropylcyclopropane thing
C          1.72130        0.29440        0.77730
C          0.83180       -0.50460       -0.09140
C          1.71670        0.54780       -0.70620
C         -0.64040       -0.21320       -0.19910
C         -1.51240       -0.29080        1.01850
C         -1.22330        1.02290        0.37630
O          1.15890       -1.85080       -0.24700
N         -1.19530       -0.59740       -1.49230
H          2.64530       -0.18920        1.14360
H          1.33240        1.07470        1.45090
H          2.50150        0.16240       -1.35550
H          1.26020        1.49830       -1.05550
H         -2.46440       -0.79720        0.86980
H         -1.02270       -0.45110        1.99780
H         -0.57220        1.76790        0.87700
H         -2.10250        1.50110       -0.11230
H          0.62400       -2.37500        0.39750
H         -2.23050       -0.62660       -1.42900
H         -0.82840        0.02640       -2.22050
19
Weird cyclopropylcyclopropane thing
C          1.51480       -3.13820       -2.27600
C          0.73640       -2.11650       -1.55420
C          1.72120       -1.70980       -2.59620
C         -0.74810       -1.94780       -1.79080
C         -1.70230       -3.01200       -1.46830
C         -1.41280       -2.65710       -2.90760
O          1.18170       -1.86300       -0.23500
N         -1.21810       -0.58530       -1.50440
H          1.01620       -3.76900       -3.03330
H          2.33340       -3.70000       -1.74890
H          1.36920       -1.29120       -3.57380
H          2.70800       -1.29280       -2.30770
H         -1.40770       -4.01120       -1.09860
H         -2.73560       -2.73610       -1.14930
H         -0.94740       -3.45140       -3.48650
H         -2.17620       -2.07200       -3.48310
H          1.78690       -1.07980       -0.21750
H         -2.12270       -0.60450       -0.98310
H         -0.53970       -0.08870       -0.86570
19
Weird cyclopropylcyclopropane thing
C          1.36880        0.62980        0.02790
C          0.60790       -0.63240        0.20520
C          1.25260       -0.03030        1.36780
C         -0.87400       -0.52110       -0.05840
C         -1.71030        0.33430        0.78260
C         -1.84900       -1.17080        0.86940
O          1.14980       -1.84600       -0.25180
N         -1.18620       -0.60230       -1.48750
H          2.30520        0.55260       -0.55300
H          0.83030        1.57070       -0.07720
H          2.19570       -0.48100        1.73480
H          0.66190        0.43960        2.17290
H         -1.32250        0.78220        1.72350
H         -2.49230        0.92550        0.29350
H         -1.41800       -1.72010        1.70730
H         -2.74910       -1.61890        0.40290
H          1.06720       -2.47260        0.52590
H         -0.77520        0.23720       -1.98420
H         -0.71550       -1.43270       -1.90130
19
Weird cyclopropylcyclopropane thing
C          0.17100       -4.04400       -0.76610
C          0.12740       -2.58210       -0.84680
C         -0.79150       -3.33670        0.08900
C         -0.57850       -1.84790       -1.95590
C         -1.31590       -2.57630       -3.01100
C         -0.04840       -1.80190       -3.32000
O          1.16270       -1.85280       -0.24500
N         -1.19900       -0.59540       -1.49430
H         -0.23410       -4.65340       -1.61510
H          1.11500       -4.48120       -0.34880
H         -0.64700       -3.21560        1.18820
H         -1.86910       -3.40830       -0.17710
H         -2.29120       -2.16690       -3.34710
H         -1.23220       -3.68680       -3.11380
H          0.82160       -2.38000       -3.66330
H         -0.23780       -0.90190       -3.95390
H          0.99860       -0.86970       -0.32880
H         -1.41950       -0.65590       -0.49540
H         -0.52080        0.15960       -1.74950
