19
Weird cyclopropylcyclopropane thing
C          0.00000        0.00000        0.00000
C          1.52240        0.00000        0.00000
C          0.75790        1.31850        0.00000
H         -0.48340       -0.22990        0.97380
H         -0.49880       -0.20940       -0.97050
H          0.72340        1.84710        0.97620
H          0.66920        1.85890       -0.96420
C          2.17010       -0.57020       -1.27550
C          3.64660       -0.21910       -1.43830
C          2.61990        0.33730       -2.41730
H          4.05030        0.55630       -0.75230
H          4.30010       -0.99980       -1.88310
H          2.66900       -0.13310       -3.42220
H          2.46900        1.42880       -2.29380
O          2.05000       -0.40630        1.23130
H          2.82930        0.18430        1.39530
N          1.85470       -1.96130       -1.61740
H          2.42830       -2.29050       -2.42820
H          0.86060       -1.98960       -1.93740
