16
Title
C         -5.94970       -4.74610        0.00030
C         -4.54270       -4.62800       -0.00000
C         -4.00050       -3.34630        0.00010
C         -4.79540       -2.22820        0.00060
C         -6.18390       -2.30130        0.00100
C         -6.76890       -3.58500        0.00090
C         -3.96020       -1.11940        0.00070
C         -2.64900       -1.62090        0.00020
N         -2.70920       -2.97160       -0.00010
H         -6.40190       -5.71580        0.00020
H         -3.91480       -5.49440       -0.00040
H         -6.78620       -1.41700        0.00140
H         -7.83420       -3.68490        0.00120
H         -4.25580       -0.09110        0.00100
H         -1.75430       -1.03400        0.00010
H         -1.92320       -3.58980       -0.00050
