16
Title
C         -2.03760        0.87360        0.09000
C         -0.78750        1.44530       -0.01550
C          0.37220        0.67300       -0.05430
C          0.27270       -0.70160        0.01450
C         -0.97470       -1.28240        0.12030
C         -2.10470       -0.49050        0.15630
C          1.55670       -1.25500       -0.04210
C          2.41650       -0.18020       -0.14560
N          1.68000        0.94370       -0.14980
H         -2.94780        1.45500        0.12150
H         -0.70080        2.52180       -0.07000
H         -1.02480       -2.36060        0.17250
H         -3.09040       -0.97120        0.24090
H          1.81150       -2.30590       -0.01050
H          3.50530       -0.28920       -0.21000
H          2.05360        1.92420       -0.21820
