23
Frame 1
C          3.88490        0.34610        0.38800
C          2.70870        0.27370        0.15410
C          1.25180        0.19700       -0.13740
C          0.79240       -1.12950        0.39050
C          0.59710        1.28680        0.62090
O          1.13490        0.32640       -1.50750
C         -0.44030       -1.64730       -0.27050
C         -1.65460       -0.81220        0.01120
C         -0.82920        1.51900        0.40080
C         -1.54780        0.59030       -0.51030
H          0.57120       -0.99850        1.46950
H          1.59810       -1.87720        0.25550
H          0.76310        1.07480        1.71880
H          1.20430        2.22490        0.44820
H          1.51830       -0.43970       -1.96220
H         -0.64130       -2.66230        0.14660
H         -0.30290       -1.80550       -1.36680
H         -1.91610       -0.84250        1.06840
H         -2.50790       -1.29510       -0.54240
H         -1.41320        1.54310        1.36900
H         -0.97550        2.56110       -0.01160
H         -1.18350        0.59460       -1.55040
H         -2.61230        0.97190       -0.58250
