23
Frame 1
C          3.39710       -0.32830        1.84310
C          2.39440       -0.26820        1.17670
C          1.17120       -0.19570        0.34000
C          0.28240       -1.30540        0.78060
C          0.60020        1.16650        0.52730
O          1.59370       -0.33870       -0.98970
C         -1.06430       -1.35040        0.20280
C         -1.32990       -0.47050       -0.96030
C         -0.18770        1.65770       -0.67150
C         -1.55980        0.99140       -0.56220
H          0.82030       -2.26670        0.57500
H          0.22000       -1.25750        1.90150
H          1.45830        1.89230        0.63850
H         -0.03060        1.28420        1.42190
H          2.42220       -0.85670       -1.00270
H         -1.32400       -2.40540       -0.10670
H         -1.83620       -1.11090        0.98910
H         -2.31610       -0.79330       -1.40810
H         -0.60220       -0.52430       -1.76780
H         -0.24830        2.74720       -0.65630
H          0.27610        1.25180       -1.61290
H         -2.30770        1.48170       -1.18270
H         -1.82920        0.99920        0.52420
