23
Frame 1
C          2.93370        1.33970        0.62550
C          2.07710        0.60330        0.28570
C          0.92240       -0.31860       -0.14830
C          0.06230       -0.75220        1.14340
C          0.04030        0.41290       -1.17710
O          1.48310       -1.56490       -0.76670
C         -1.38450       -0.92720        0.64690
C         -2.16360        0.39870        0.72700
C         -1.07580        1.17950       -0.44340
C         -2.24420        0.25360       -0.64110
H          0.11170        0.05860        1.94330
H          0.45530       -1.73480        1.56730
H         -0.42480       -0.34750       -1.88770
H          0.67860        1.14730       -1.77100
H          0.79420       -2.40400       -0.58970
H         -1.36570       -1.28290       -0.43600
H         -1.90850       -1.70740        1.29210
H         -1.56540        1.29840        1.09090
H         -3.16670        0.31550        1.26210
H         -1.26490        2.19830       -0.91860
H         -0.83140        1.30390        0.66310
H         -3.16620        0.68480       -1.15470
H         -1.97160       -0.78340       -1.02830
