25
Structure 0 - TS - Rel. E. = 0.0 kcal/mol
C     -1.497024 -1.191191 -0.298014
H     -1.047700 -1.051619 -1.285888
C     -0.826789 -1.869377  0.701476
H     -1.383316 -2.271980  1.551565
C      0.574190 -1.912114  0.741679
H      1.054066 -2.339050  1.628523
C      1.344255 -1.279461 -0.215293
H      1.022826 -1.200417 -1.247267
H      2.420846 -1.213671 -0.104846
C     -2.970168 -0.995864 -0.229485
H     -3.351599 -0.330503 -1.014696
H     -3.502884 -1.955309 -0.330976
H     -3.291207 -0.564503  0.737434
O      0.185828  0.805428  2.318671
C      1.292246  0.764187  1.469822
C     -0.997368  0.853469  1.548081
C      0.779783  0.737935  0.052457
O      2.395936  0.761726  1.919867
C     -0.612443  0.804598  0.124567
O     -2.045330  0.934573  2.112123
H     -1.273537  1.174460 -0.638133
C      1.609620  1.315858 -1.031082
H      1.563839  2.419802 -1.009461
H      2.675577  1.051121 -0.937683
H      1.277629  1.008003 -2.032504
25
Structure 1 - TS - Rel. E. = 0.0 kcal/mol
C     -1.481229 -1.123192 -0.061916
H     -1.015491 -1.229424  0.922459
C     -0.824955 -1.523449 -1.209564
H     -1.394546 -1.707216 -2.123994
C      0.575187 -1.539460 -1.282261
H      1.040862 -1.726102 -2.255615
C      1.359368 -1.156994 -0.210887
H      1.057603 -1.341239  0.813473
H      2.433115 -1.053903 -0.319962
C     -2.956562 -0.932226 -0.057703
H     -3.327625 -0.475877  0.869126
H     -3.298095 -0.287030 -0.889052
H     -3.481126 -1.894103 -0.178024
O      0.137590  1.480164 -2.124596
C      1.260920  1.239864 -1.332862
C     -1.030419  1.322813 -1.345269
C      0.776884  0.856574  0.042217
O      2.355419  1.359919 -1.789239
C     -0.616876  0.924326  0.013838
O     -2.089649  1.531872 -1.852410
H     -1.264744  1.085044  0.856566
C      1.624797  1.156912  1.220250
H      2.690392  0.936184  1.044702
H      1.571115  2.231074  1.474418
H      1.315553  0.606282  2.119713
25
Structure 2 - TS - Rel. E. = 0.309 kcal/mol
C     -1.539983 -1.102773 -0.159652
H     -1.185407 -1.323992  0.853210
C     -0.777737 -1.421415 -1.264247
H     -1.249553 -1.511469 -2.242828
C      0.622097 -1.480525 -1.190327
H      1.181839 -1.636679 -2.115890
C      1.301279 -1.180772 -0.024311
H      0.883105 -1.401947  0.952928
H      2.383753 -1.130198 -0.004375
C     -2.999067 -0.842576 -0.276716
H     -3.360474 -0.151594  0.506952
H     -3.288776 -0.412852 -1.244570
H     -3.574447 -1.775480 -0.153062
O      0.176149  1.002977  2.346953
C      1.287292  0.939671  1.507574
C     -1.002944  1.028519  1.564796
C      0.782600  0.843800  0.086073
O      2.388553  0.963957  1.961410
C     -0.610283  0.920387  0.151753
O     -2.053698  1.122728  2.121195
H     -1.265857  1.241254 -0.637399
C      1.620899  1.377393 -1.013113
H      1.576819  2.480606 -1.039559
H      2.684244  1.110427 -0.906086
H      1.289429  1.025350 -2.001117
25
Structure 3 - TS - Rel. E. = 0.309 kcal/mol
C     -1.533759 -1.271947 -0.217311
H     -1.198224 -1.218974 -1.259087
C     -0.748031 -1.858724  0.752730
H     -1.199580 -2.204044  1.682800
C      0.650330 -1.882843  0.640426
H      1.229898 -2.267845  1.483151
C      1.303960 -1.284645 -0.420476
H      0.866607 -1.248662 -1.413640
H      2.385545 -1.220123 -0.447168
C     -2.991540 -1.065252 -0.011628
H     -3.372050 -0.200670 -0.586217
H     -3.564073 -1.941536 -0.359596
H     -3.264474 -0.899853  1.038831
O      0.120753  1.428852 -2.121140
C      1.249275  1.160125 -1.348254
C     -1.042103  1.239222 -1.337123
C      0.774457  0.694099  0.008873
O      2.340806  1.311202 -1.801032
C     -0.619762  0.771837 -0.008378
O     -2.104408  1.464484 -1.830354
H     -1.260410  0.870452  0.849142
C      1.633710  0.932563  1.192351
H      2.696237  0.716317  0.997629
H      1.582587  1.990029  1.507100
H      1.327271  0.330437  2.060414
25
Structure 4 - TS - Rel. E. = 0.922 kcal/mol
C     -1.451483 -1.317667 -0.264240
H     -1.061539 -1.103676 -1.261526
C     -0.659668 -1.898095  0.704356
H     -1.124627 -2.367626  1.575686
C      0.736139 -1.778401  0.682091
H      1.303813 -2.157549  1.537881
C      1.387705 -1.048475 -0.299299
H      1.015343 -0.996822 -1.317612
H      2.459076 -0.881440 -0.237217
C     -2.933016 -1.346182 -0.141642
H     -3.444386 -0.861406 -0.982731
H     -3.308021 -2.381263 -0.090437
H     -3.288184 -0.847440  0.779870
O     -0.114306  0.845287  2.305098
C     -1.231897  0.859987  1.446389
C      1.058336  0.860221  1.543715
C     -0.729685  0.850284  0.049341
O     -2.324562  0.894944  1.924364
C      0.666956  0.823763  0.100100
O      2.119958  0.902889  2.084068
H      1.322172  1.253940 -0.646129
C     -1.537468  1.431154 -1.042943
H     -2.616523  1.246479 -0.912858
H     -1.417211  2.529023 -1.079407
H     -1.252353  1.051258 -2.033922
25
Structure 5 - TS - Rel. E. = 0.922 kcal/mol
C     -1.459421 -1.313317  0.267305
H     -1.072640 -1.096386  1.265169
C     -0.666344 -1.901172 -0.695714
H     -1.129855 -2.372365 -1.566866
C      0.729877 -1.787291 -0.668716
H      1.299175 -2.172557 -1.520650
C      1.380802 -1.055384  0.311683
H      1.004936 -0.997948  1.328491
H      2.453106 -0.893034  0.252903
C     -2.940494 -1.336151  0.138540
H     -3.453279 -0.836975  0.970399
H     -3.289105 -0.848750 -0.791533
H     -3.320080 -2.370207  0.100676
O     -0.103149  0.832755 -2.306287
C     -1.224361  0.855399 -1.452313
C      1.066444  0.846591 -1.540232
C     -0.727806  0.850192 -0.053190
O     -2.314682  0.892026 -1.935339
C      0.668947  0.817692 -0.098054
O      2.130278  0.883189 -2.076614
H      1.322771  1.248849  0.648940
C     -1.537440  1.439670  1.033164
H     -1.417744  2.537741  1.060997
H     -2.616151  1.253838  0.903442
H     -1.253332  1.067824  2.027413
25
Structure 6 - TS - Rel. E. = 1.384 kcal/mol
C     -1.403889 -1.213424 -0.090651
H     -0.931772 -1.321584  0.890525
C     -0.696265 -1.436460 -1.253969
H     -1.231740 -1.623270 -2.186043
C      0.696680 -1.284129 -1.306193
H      1.188416 -1.323119 -2.279679
C      1.422083 -0.930394 -0.182843
H      1.131207 -1.267365  0.809039
H      2.482345 -0.709253 -0.246375
C     -2.890419 -1.263981 -0.080544
H     -3.328877 -0.584320  0.671795
H     -3.342298 -1.008936 -1.047631
H     -3.241769 -2.276240  0.181316
O     -0.120099  1.045864  2.313376
C     -1.243812  1.038388  1.466053
C      1.047677  1.054908  1.538779
C     -0.752302  0.966146  0.062797
O     -2.332812  1.091800  1.948699
C      0.645328  0.963287  0.104657
O      2.110475  1.125095  2.072819
H      1.288032  1.361530 -0.668343
C     -1.575202  1.493110 -1.044822
H     -2.650283  1.298862 -0.903320
H     -1.465570  2.587718 -1.135456
H     -1.289511  1.064050 -2.017168
25
Structure 7 - TS - Rel. E. = 1.384 kcal/mol
C     -1.445527 -1.329102 -0.316825
H     -0.989651 -1.196845 -1.302760
C     -0.731014 -1.862178  0.736318
H     -1.260528 -2.265649  1.600680
C      0.666767 -1.768269  0.796762
H      1.169704 -2.069108  1.717394
C      1.388736 -1.159890 -0.214027
H      1.073727 -1.222756 -1.252738
H      2.456514 -0.992976 -0.118686
C     -2.932921 -1.332503 -0.309418
H     -3.357452 -0.471735 -0.856214
H     -3.320661 -2.234499 -0.812196
H     -3.364506 -1.318418  0.699556
O     -0.111739  1.432178 -2.090902
C     -1.227157  1.239417 -1.254563
C      1.063053  1.210373 -1.359805
C     -0.724873  0.798069  0.075493
O     -2.318419  1.443521 -1.689412
C      0.671453  0.765796  0.009833
O      2.122383  1.385416 -1.876317
H      1.334154  0.933478  0.847650
C     -1.520101  1.049882  1.294574
H     -1.371088  2.080710  1.660255
H     -2.602557  0.933155  1.125898
H     -1.242173  0.376910  2.119925
