23
Frame 1
C 2.9337 1.3397 0.6255
C 2.0771 0.6033 0.2857
C 0.9224 -0.3186 -0.1483
C 0.0623 -0.7522 1.1434
C 0.0403 0.4129 -1.1771
O 1.4831 -1.5649 -0.7667
C -1.3845 -0.9272 0.6469
C -2.1636 0.3987 0.7270
C -1.0758 1.1795 -0.4434
C -2.2442 0.2536 -0.6411
H 0.1117 0.0586 1.9433
H 0.4553 -1.7348 1.5673
H -0.4248 -0.3475 -1.8877
H 0.6786 1.1473 -1.7710
H 0.7942 -2.4040 -0.5897
H -1.3657 -1.2829 -0.4360
H -1.9085 -1.7074 1.2921
H -1.5654 1.2984 1.0909
H -3.1667 0.3155 1.2621
H -1.2649 2.1983 -0.9186
H -0.8314 1.3039 0.6631
H -3.1662 0.6848 -1.1547
H -1.9716 -0.7834 -1.0283
