14

 C                 -3.58282264   -3.37227287    0.00000000
 H                 -3.05145061   -4.30100521    0.00000000
 H                 -4.65281446   -3.36808838   -0.00000000
 C                 -2.90063803   -2.20129413   -0.00000000
 H                 -3.43201007   -1.27256179   -0.00000000
 C                 -1.36064981   -2.20731667   -0.00000000
 H                 -0.82927778   -3.13604901    0.00000000
 C                 -0.67846520   -1.03633794   -0.00000000
 H                 -1.20983724   -0.10760559    0.00000000
 C                  0.86152302   -1.04236047    0.00000000
 H                  1.39289505   -1.97109282    0.00000000
 C                  1.54370763    0.12861826   -0.00000000
 H                  1.01233560    1.05735060    0.00000000
 H                  2.61369945    0.12443377   -0.00000000
