64
prod
C     -0.713506  1.249313  0.937131
C      0.855246  1.263731  0.942501
H     -1.216926  0.840407  0.048935
H      1.377610  0.834657  0.074751
C      1.257653  0.583972  2.241412
O      2.359046  0.434498  2.685267
C     -1.116888  0.528442  2.210685
O     -2.218966  0.307452  2.619887
C      0.057926 -0.468266  4.172104
C      0.095227 -1.858585  4.372273
C     -0.004478  0.432574  5.246456
C      0.085883 -2.296245  5.704108
C     -0.025406 -0.038762  6.551237
H     -0.036247  1.503615  5.052077
C      0.022714 -1.412248  6.776059
H      0.132333 -3.362821  5.929052
H     -0.076971  0.657017  7.386573
H      0.011812 -1.797479  7.794950
C      0.189046 -2.882728  3.251645
C      1.639625 -2.891726  2.739630
H      1.948406 -1.913059  2.359668
H      2.341349 -3.153157  3.540419
H      1.769366 -3.617309  1.930473
C     -0.153749 -4.306892  3.739974
H     -1.155591 -4.344310  4.181745
H     -0.136548 -5.018813  2.906514
H      0.567467 -4.675176  4.476866
C     -0.785754 -2.567732  2.103095
H     -1.742148 -2.191261  2.489107
H     -0.380159 -1.829873  1.407640
H     -1.007415 -3.461555  1.508832
N      0.073369  0.140411  2.876482
C      0.841204  2.807425  1.036703
C     -0.726998  2.791375  1.075168
H      1.371665  3.241857  1.897122
H     -1.219168  3.187579  1.975919
C     -1.172218  3.518057 -0.180872
O     -2.287392  3.784367 -0.523964
C      1.201730  3.506681 -0.264261
O      2.290088  3.743186 -0.700893
C     -0.052430  4.619882 -2.124126
C     -0.144398  4.034367 -3.398727
C     -0.010577  6.011764 -1.951776
C     -0.228646  4.916813 -4.484687
C     -0.078154  6.853633 -3.052879
H      0.071445  6.429295 -0.948727
C     -0.194592  6.298073 -4.324224
H     -0.329904  4.527812 -5.498900
H     -0.045497  7.933636 -2.921775
H     -0.260491  6.945845 -5.197551
C     -0.196201  2.535875 -3.654268
C     -1.610500  2.037576 -3.311677
H     -1.877005  2.232720 -2.269008
H     -2.366855  2.541741 -3.925270
H     -1.703898  0.960870 -3.484558
C      0.082190  2.192641 -5.133666
H      1.051269  2.588222 -5.457302
H      0.103863  1.107149 -5.284687
H     -0.694171  2.582683 -5.800105
C      0.856471  1.778654 -2.824946
H      1.790330  2.352826 -2.755531
H      0.504117  1.567274 -1.813771
H      1.106474  0.812929 -3.278577
N     -0.008975  3.861891 -0.910365