35
M0001
N         -0.24720        1.07980       -0.24920
C         -1.08700       -0.02000        0.20400
C         -1.12000       -0.05930        1.74060
O         -1.02200        0.89160        2.50350
C         -2.47840        0.11270       -0.38910
C         -5.03110        0.35290       -1.53960
C         -3.36500        1.11790        0.03450
C         -2.88990       -0.76010       -1.40900
C         -4.15960       -0.64180       -1.97740
C         -4.63400        1.23320       -0.53580
O         -1.31510       -1.30180        2.23660
C          1.11320        1.07250       -0.23300
O          1.61990       -0.13780        0.09660
O          1.75860        2.07790       -0.48870
C          3.05290       -0.34350        0.18840
C          3.20740       -1.82010        0.58370
C          3.67000        0.52490        1.29020
C          3.73580       -0.12490       -1.16580
H         -0.65320        2.00050       -0.33780
H         -0.62410       -0.95680       -0.13070
H         -6.01880        0.44480       -1.98400
H         -3.07600        1.82220        0.81340
H         -2.22230       -1.53950       -1.77140
H         -4.46760       -1.32470       -2.76510
H         -5.31230        2.01280       -0.19790
H         -1.33650       -1.16740        3.20740
H          4.25930       -2.10590        0.68810
H          2.74320       -2.47410       -0.16380
H          2.69690       -2.02480        1.53220
H          4.71470        0.25190        1.47440
H          3.65070        1.58800        1.03210
H          3.11150        0.41910        2.22700
H          4.78480       -0.43910       -1.13830
H          3.22390       -0.68750       -1.95460
H          3.71750        0.92650       -1.46830
35
M0001
N         -0.21370        1.00620        0.52500
C         -0.95940        0.23020       -0.45580
C         -0.49770        0.59360       -1.87660
O         -0.07160        1.67460       -2.25810
C         -2.44940        0.45530       -0.26950
C         -5.20340        0.84920        0.12810
C         -3.24660       -0.56090        0.28080
C         -3.05530        1.67870       -0.60440
C         -4.42410        1.87100       -0.40950
C         -4.61530       -0.36510        0.47470
O         -0.63550       -0.42330       -2.75670
C          1.07230        0.75750        0.89320
O          1.54480       -0.39840        0.37290
O          1.69010        1.52980        1.61070
C          2.90530       -0.82910        0.63310
C          3.92230        0.16680        0.06510
C          3.04280       -2.15730       -0.12670
C          3.13120       -1.09290        2.12560
H         -0.54010        1.93090        0.76740
H         -0.71760       -0.82880       -0.30120
H         -6.26880        1.00070        0.28090
H         -2.80650       -1.51460        0.56580
H         -2.46670        2.49520       -1.02050
H         -4.88230        2.82050       -0.67520
H         -5.22260       -1.16020        0.89990
H         -0.32970       -0.04250       -3.60670
H          4.94070       -0.23390        0.11100
H          3.68910        0.40790       -0.97820
H          3.91840        1.11330        0.61400
H          4.04110       -2.59200       -0.00990
H          2.84950       -2.01580       -1.19660
H          2.30400       -2.88640        0.22630
H          2.34250       -1.73720        2.53020
H          4.09920       -1.57370        2.30300
H          3.11290       -0.16910        2.71170
35
M0001
N         -0.25650       -0.03540       -0.04220
C         -1.37130       -0.82130        0.45820
C         -1.30760       -2.23940       -0.13140
O         -0.82260       -2.56230       -1.20770
C         -2.68070       -0.12620        0.13260
C         -5.08850        1.20830       -0.43300
C         -3.17590       -0.06530       -1.18140
C         -3.40690        0.50620        1.15420
C         -4.60460        1.16590        0.87260
C         -4.37420        0.59480       -1.45960
O         -1.90150       -3.17000        0.64770
C          0.98670       -0.16960        0.48920
O          1.87050        0.47250       -0.30540
O          1.24310       -0.79010        1.50780
C          3.28600        0.47680        0.01210
C          3.86740       -0.94100       -0.01890
C          3.93550        1.29800       -1.11220
C          3.55540        1.17760        1.34830
H         -0.28130        0.30640       -0.99170
H         -1.25140       -0.92310        1.54440
H         -6.02080        1.72280       -0.65080
H         -2.63380       -0.53200       -2.00230
H         -3.04260        0.49110        2.17990
H         -5.15900        1.64930        1.67320
H         -4.74980        0.63200       -2.47920
H         -1.78790       -4.00670        0.15050
H          4.96000       -0.92530        0.05670
H          3.58940       -1.45490       -0.94600
H          3.49150       -1.55540        0.80480
H          5.02040        1.37590       -0.98510
H          3.73300        0.84720       -2.09090
H          3.51740        2.31090       -1.14650
H          4.62830        1.32710        1.51060
H          3.17370        0.60150        2.19660
H          3.05840        2.15370        1.38250
35
M0001
N          0.30520       -0.01750       -0.07840
C          1.42170       -0.92310       -0.29630
C          1.52280       -1.39900       -1.76070
O          2.31430       -2.21830       -2.20520
C          2.70460       -0.25780        0.17150
C          5.04840        0.98560        1.09670
C          3.30260        0.78140       -0.56190
C          3.29370       -0.65080        1.38390
C          4.46030       -0.03480        1.84050
C          4.46960        1.39490       -0.10250
O          0.65650       -0.79350       -2.60740
C         -0.95640       -0.49380        0.08790
O         -1.82410        0.53920        0.01020
O         -1.24000       -1.66790        0.26010
C         -3.25210        0.31840        0.13930
C         -3.78180       -0.57060       -0.99140
C         -3.87680        1.71500       -0.00140
C         -3.60750       -0.23960        1.52180
H          0.36090        0.92540       -0.43230
H          1.23660       -1.83280        0.28950
H          5.95730        1.46340        1.45320
H          2.86720        1.12230       -1.49890
H          2.84580       -1.44090        1.98380
H          4.90920       -0.35130        2.77860
H          4.92790        2.19330       -0.68060
H          0.83720       -1.22610       -3.46840
H         -3.42410       -1.60080       -0.90360
H         -4.87670       -0.60350       -0.99260
H         -3.44290       -0.20260       -1.96640
H         -3.49290        2.39300        0.76990
H         -3.61360        2.16420       -0.96620
H         -4.96840        1.68270        0.07880
H         -3.14670        0.36140        2.31380
H         -4.69140       -0.25190        1.67980
H         -3.24630       -1.26380        1.65490
