98
TEST
H      1.018800  3.492000 -1.790200
C      1.544800  3.978200 -0.982100
C      0.854300  4.175300  0.211100
C      2.869900  4.342800 -1.124600
N     -0.477200  3.658300  0.241200
C      1.473100  4.782100  1.318900
C      3.514100  4.911000 -0.036700
H      3.398000  4.160200 -2.052500
C     -0.815200  2.417900  0.812000
C     -1.626800  4.310700 -0.184900
C      0.838700  5.032500  2.704700
C      2.822600  5.121000  1.145700
H      4.560200  5.184900 -0.104700
C     -2.228000  2.279400  0.784400
O      0.048400  1.671700  1.302300
C     -2.757200  3.362200  0.105300
O     -1.670200  5.412600 -0.676600
C      1.208400  3.852900  3.623800
C     -0.691800  5.197500  2.688400
C      1.399900  6.331900  3.319800
H      3.365000  5.562000  1.970500
H     -2.751800  1.425200  1.182500
H     -3.749500  3.769200  0.235900
H      2.294200  3.750300  3.707700
H      0.801700  4.019000  4.626600
H      0.805500  2.914600  3.237900
H     -1.010400  5.911300  1.924900
H     -1.011900  5.583900  3.659500
H     -1.222100  4.257700  2.537800
H      0.878800  6.537500  4.258200
H      1.245800  7.183600  2.651500
H      2.462900  6.268100  3.557500
C      6.776000  3.318300 -0.693800
C      6.046500  2.315900 -0.064000
C      6.691600  3.485700 -2.070300
H      7.409400  3.971900 -0.104600
C      5.231000  1.470500 -0.807300
H      6.123200  2.191300  1.009600
C      5.883600  2.635100 -2.818400
H      7.259200  4.268800 -2.559900
C      4.368000  0.404400 -0.147200
C      5.156800  1.632600 -2.190500
H      5.822700  2.750300 -3.894800
N      4.817600  0.002300  1.161300
C      2.928300  0.916000 -0.114800
H      4.372000 -0.483000 -0.781700
H      4.533800  0.960700 -2.769500
C      5.039400 -1.310000  1.457400
H      4.616000  0.608000  1.941000
O      2.584600  1.404600  1.055400
O      2.202900  0.865300 -1.083900
O      5.224100 -1.435200  2.777200
O      5.073800 -2.205800  0.639100
H      1.612600  1.656500  1.071300
C      5.542200 -2.723900  3.391200
C      5.678000 -2.364000  4.865500
C      6.861300 -3.255500  2.839600
C      4.390400 -3.702000  3.187000
H      4.742200 -1.943200  5.240300
H      5.916200 -3.258200  5.445700
H      6.475000 -1.631200  5.009600
H      7.645800 -2.502100  2.947100
H      7.157700 -4.141900  3.406000
H      6.767800 -3.524800  1.788500
H      3.464900 -3.267000  3.572300
H      4.595800 -4.622300  3.739800
H      4.264800 -3.946400  2.132700
C     -0.394900 -1.607800 -1.635100
N      0.026800 -0.522700 -2.510200
H     -1.489200 -1.634900 -1.665400
C     -0.542800  0.667700 -2.723800
H      0.887200 -0.672400 -3.010000
C      0.233000  1.529700 -3.686100
C     -1.727500  1.104200 -2.155200
C     -0.637000  2.588900 -4.348500
H      1.055800  1.979400 -3.120000
H      0.697000  0.890800 -4.443200
C     -2.253400  2.386000 -2.440500
H     -2.283000  0.441200 -1.502100
C     -1.467700  3.337100 -3.312500
H     -0.010000  3.286900 -4.907700
H     -1.306400  2.105000 -5.066900
C     -3.441800  2.834800 -1.871400
H     -0.815900  3.960100 -2.689900
H     -2.154300  4.028300 -3.804700
C     -4.551300  1.914300 -1.431700
H     -5.048900  1.477200 -2.304700
H     -4.189300  1.090900 -0.815800
H     -5.310200  2.455800 -0.861300
H     -3.761200  3.823900 -2.192100
C      0.084700 -2.932200 -2.257700
H     -0.271000 -3.002400 -3.264400
H      1.154300 -2.961100 -2.254500
H     -0.296000 -3.753200 -1.686800
C     -0.002800 -1.361500 -0.166400
H     -0.801500 -0.857000  0.336200
H      0.185700 -2.298600  0.314500
H      0.879800 -0.757700 -0.129300
98
TEST
H      0.722284  4.257998 -1.570622
C      1.444264  4.440012 -0.771284
C      1.044694  4.310313  0.570494
C      2.745393  4.799550 -1.080901
N     -0.292716  3.854334  0.760853
C      1.915287  4.614380  1.626726
C      3.657579  5.005351 -0.046570
H      3.057730  4.901668 -2.118250
C     -0.659105  2.588766  1.254367
C     -1.447886  4.524722  0.226495
C      1.568074  4.659999  3.107152
C      3.243943  4.907857  1.274384
H      4.696957  5.238340 -0.276903
C     -2.160815  2.501387  1.126855
O      0.089373  1.754490  1.704736
C     -2.612545  3.614657  0.535575
O     -1.413774  5.580003 -0.328442
C      2.013201  3.336536  3.749689
C      0.076698  4.903063  3.393502
C      2.326960  5.831499  3.774988
H      3.984351  5.064621  2.060190
H     -2.689043  1.631405  1.477391
H     -3.613983  3.902820  0.262190
H      3.039076  3.073943  3.464018
H      1.972100  3.391045  4.841978
H      1.374252  2.498925  3.445354
H     -0.330199  5.682928  2.740528
H     -0.076378  5.233575  4.428105
H     -0.523422  3.998190  3.277509
H      1.987270  5.986635  4.804429
H      2.162169  6.765668  3.226922
H      3.404925  5.651897  3.826202
C      6.818931  3.415387 -0.812202
C      6.178079  2.379980 -0.131432
C      6.377793  3.803658 -2.074502
H      7.669653  3.916168 -0.355075
C      5.089136  1.736864 -0.714398
H      6.545397  2.076923  0.848422
C      5.291242  3.154539 -2.661250
H      6.881136  4.609115 -2.603929
C      4.354880  0.602290 -0.037054
C      4.647898  2.123537 -1.984577
H      4.948189  3.453174 -3.649927
N      4.933216  0.220633  1.245156
C      2.897460  1.039301  0.144286
H      4.365812 -0.299487 -0.733826
H      3.791249  1.623278 -2.442558
C      5.064235 -1.133011  1.518260
H      4.873505  0.892012  2.002707
O      2.647371  1.512444  1.360692
O      2.053990  0.993630 -0.718999
O      5.405279 -1.279362  2.820212
O      4.930512 -2.015041  0.697679
H      1.636277  1.715278  1.514551
C      5.653909 -2.612252  3.333356
C      5.989092 -2.292825  4.794337
C      6.838341 -3.223972  2.597160
C      4.382111 -3.441706  3.209544
H      5.152667 -1.785705  5.291212
H      6.213716 -3.206534  5.352617
H      6.857485 -1.626564  4.865888
H      7.695756 -2.540830  2.581034
H      7.160141 -4.160013  3.063852
H      6.587366 -3.448505  1.548345
H      3.514288 -2.905280  3.612068
H      4.470909 -4.391336  3.746002
H      4.156348 -3.678092  2.157775
C     -0.769529 -1.446086 -1.233810
N     -0.032059 -0.458998 -2.045334
H     -1.723322 -1.694380 -1.769273
C     -0.657263  0.711558 -2.466604
H      0.944638 -0.358428 -1.763046
C      0.310482  1.747543 -2.984329
C     -2.001219  0.907047 -2.477667
C     -0.374976  2.729743 -3.936760
H      0.751736  2.285383 -2.115275
H      1.169541  1.263535 -3.493734
C     -2.611940  2.087532 -3.049002
H     -2.681642  0.158007 -2.091385
C     -1.686428  3.242613 -3.329647
H      0.299288  3.572993 -4.169894
H     -0.589314  2.226298 -4.900309
C     -3.925580  2.195164 -3.321582
H     -1.487963  3.792022 -2.388295
H     -2.154657  3.978565 -4.010485
C     -4.915224  1.109022 -3.075654
H     -4.616448  0.176352 -3.577467
H     -5.006880  0.885291 -2.003749
H     -5.913762  1.369601 -3.444620
H     -4.338992  3.102358 -3.748709
C      0.099942 -2.710264 -1.130170
H      0.385164 -3.072091 -2.125888
H      1.023898 -2.524752 -0.569753
H     -0.440287 -3.514658 -0.622946
C     -1.089578 -0.906938  0.171124
H     -1.761362 -0.043825  0.114595
H     -1.566312 -1.669856  0.791103
H     -0.180669 -0.573500  0.689526
98
TEST
H      0.722284  4.257998 -1.570622
C      1.444264  4.440012 -0.771284
C      1.044694  4.310313  0.570494
C      2.745393  4.799550 -1.080901
N     -0.292716  3.854334  0.760853
C      1.915287  4.614380  1.626726
C      3.657579  5.005351 -0.046570
H      3.057730  4.901668 -2.118250
C     -0.659105  2.588766  1.254367
C     -1.447886  4.524722  0.226495
C      1.568074  4.659999  3.107152
C      3.243943  4.907857  1.274384
H      4.696957  5.238340 -0.276903
C     -2.160815  2.501387  1.126855
O      0.089373  1.754490  1.704736
C     -2.612545  3.614657  0.535575
O     -1.413774  5.580003 -0.328442
C      2.013201  3.336536  3.749689
C      0.076698  4.903063  3.393502
C      2.326960  5.831499  3.774988
H      3.984351  5.064621  2.060190
H     -2.689043  1.631405  1.477391
H     -3.613983  3.902820  0.262190
H      3.039076  3.073943  3.464018
H      1.972100  3.391045  4.841978
H      1.374252  2.498925  3.445354
H     -0.330199  5.682928  2.740528
H     -0.076378  5.233575  4.428105
H     -0.523422  3.998190  3.277509
H      1.987270  5.986635  4.804429
H      2.162169  6.765668  3.226922
H      3.404925  5.651897  3.826202
C      6.818931  3.415387 -0.812202
C      6.178079  2.379980 -0.131432
C      6.377793  3.803658 -2.074502
H      7.669653  3.916168 -0.355075
C      5.089136  1.736864 -0.714398
H      6.545397  2.076923  0.848422
C      5.291242  3.154539 -2.661250
H      6.881136  4.609115 -2.603929
C      4.354880  0.602290 -0.037054
C      4.647898  2.123537 -1.984577
H      4.948189  3.453174 -3.649927
N      4.933216  0.220633  1.245156
C      2.897460  1.039301  0.144286
H      4.365812 -0.299487 -0.733826
H      3.791249  1.623278 -2.442558
C      5.064235 -1.133011  1.518260
H      4.873505  0.892012  2.002707
O      2.647371  1.512444  1.360692
O      2.053990  0.993630 -0.718999
O      5.405279 -1.279362  2.820212
O      4.930512 -2.015041  0.697679
H      1.636277  1.715278  1.514551
C      5.653909 -2.612252  3.333356
C      5.989092 -2.292825  4.794337
C      6.838341 -3.223972  2.597160
C      4.382111 -3.441706  3.209544
H      5.152667 -1.785705  5.291212
H      6.213716 -3.206534  5.352617
H      6.857485 -1.626564  4.865888
H      7.695756 -2.540830  2.581034
H      7.160141 -4.160013  3.063852
H      6.587366 -3.448505  1.548345
H      3.514288 -2.905280  3.612068
H      4.470909 -4.391336  3.746002
H      4.156348 -3.678092  2.157775
C     -0.769529 -1.446086 -1.233810
N     -0.032059 -0.458998 -2.045334
H     -1.723322 -1.694380 -1.769273
C     -0.657263  0.711558 -2.466604
H      0.944638 -0.358428 -1.763046
C      0.310482  1.747543 -2.984329
C     -2.001219  0.907047 -2.477667
C     -0.374976  2.729743 -3.936760
H      0.751736  2.285383 -2.115275
H      1.169541  1.263535 -3.493734
C     -2.611940  2.087532 -3.049002
H     -2.681642  0.158007 -2.091385
C     -1.686428  3.242613 -3.329647
H      0.299288  3.572993 -4.169894
H     -0.589314  2.226298 -4.900309
C     -3.925580  2.195164 -3.321582
H     -1.487963  3.792022 -2.388295
H     -2.154657  3.978565 -4.010485
C     -4.915224  1.109022 -3.075654
H     -4.616448  0.176352 -3.577467
H     -5.006880  0.885291 -2.003749
H     -5.913762  1.369601 -3.444620
H     -4.338992  3.102358 -3.748709
C      0.099942 -2.710264 -1.130170
H      0.385164 -3.072091 -2.125888
H      1.023898 -2.524752 -0.569753
H     -0.440287 -3.514658 -0.622946
C     -1.089578 -0.906938  0.171124
H     -1.761362 -0.043825  0.114595
H     -1.566312 -1.669856  0.791103
H     -0.180669 -0.573500  0.689526
