31
Structure1
C          2.16950       -0.21370        0.98160
C          2.08160       -0.03810       -0.51550
C          0.74140       -0.10060       -1.08740
C         -0.40240       -0.17350       -0.37410
C         -0.34290       -0.14280        1.13950
C          0.97240        0.41420        1.68480
C          3.14360        0.15660       -1.32170
C          4.58660        0.20310       -0.93030
N         -1.62520       -0.29020       -1.02520
C         -3.00150       -0.20950       -0.55150
C         -3.37500        1.21500       -0.15880
C         -3.32470       -1.23130        0.53080
H          2.21070       -1.28570        1.21300
H          3.07670        0.24240        1.39050
H          0.68370       -0.10580       -2.17350
H         -1.14340        0.47550        1.55230
H         -0.48650       -1.16350        1.51500
H          0.99430        1.50370        1.54870
H          1.03210        0.22880        2.76350
H          2.97740        0.28540       -2.39070
H          4.76880       -0.10170        0.10240
H          4.97680        1.21600       -1.06790
H          5.16000       -0.47250       -1.57350
H         -1.55050       -0.20480       -2.03700
H         -3.62960       -0.47110       -1.41340
H         -3.16280        1.91130       -0.97770
H         -2.82520        1.56400        0.71910
H         -4.44360        1.28270        0.07130
H         -4.40900       -1.30130        0.67240
H         -2.89570       -0.96690        1.50040
H         -2.95750       -2.22590        0.25630
31
Structure1
C          2.35360        0.09900        1.01780
C          2.09420        0.40120       -0.43950
C          0.69250        0.49610       -0.83000
C         -0.34890        0.20130       -0.02610
C         -0.10480       -0.32430        1.37610
C          1.31160       -0.86010        1.58230
C          3.05850        0.59300       -1.36090
C          4.53870        0.58350       -1.14510
N         -1.65680        0.37660       -0.45680
C         -2.88510       -0.05660        0.19370
C         -4.00970        0.90270       -0.19160
C         -3.22230       -1.47990       -0.24070
H          3.34010       -0.35040        1.16890
H          2.33320        1.03810        1.58530
H          0.49320        0.85100       -1.83840
H         -0.79750       -1.14010        1.61030
H         -0.30100        0.48480        2.09080
H          1.40830       -1.83790        1.09170
H          1.49200       -1.02350        2.65100
H          2.76940        0.79500       -2.39170
H          4.97560        1.48830       -1.58010
H          4.82610        0.56010       -0.09180
H          4.98200       -0.28250       -1.64580
H         -1.74830        0.59470       -1.44630
H         -2.77880       -0.02190        1.28370
H         -4.94920        0.61660        0.29280
H         -3.76800        1.92620        0.11560
H         -4.17460        0.91350       -1.27500
H         -3.34870       -1.54580       -1.32720
H         -4.14960       -1.82140        0.23100
H         -2.42570       -2.17720        0.03950
