31
Structure1
C          2.16950       -0.21370        0.98160
C          2.08160       -0.03810       -0.51550
C          0.74140       -0.10060       -1.08740
C         -0.40240       -0.17350       -0.37410
C         -0.34290       -0.14280        1.13950
C          0.97240        0.41420        1.68480
C          3.14360        0.15660       -1.32170
C          4.58660        0.20310       -0.93030
N         -1.62520       -0.29020       -1.02520
C         -3.00150       -0.20950       -0.55150
C         -3.37500        1.21500       -0.15880
C         -3.32470       -1.23130        0.53080
H          2.21070       -1.28570        1.21300
H          3.07670        0.24240        1.39050
H          0.68370       -0.10580       -2.17350
H         -1.14340        0.47550        1.55230
H         -0.48650       -1.16350        1.51500
H          0.99430        1.50370        1.54870
H          1.03210        0.22880        2.76350
H          2.97740        0.28540       -2.39070
H          4.76880       -0.10170        0.10240
H          4.97680        1.21600       -1.06790
H          5.16000       -0.47250       -1.57350
H         -1.55050       -0.20480       -2.03700
H         -3.62960       -0.47110       -1.41340
H         -3.16280        1.91130       -0.97770
H         -2.82520        1.56400        0.71910
H         -4.44360        1.28270        0.07130
H         -4.40900       -1.30130        0.67240
H         -2.89570       -0.96690        1.50040
H         -2.95750       -2.22590        0.25630