68
TEST
C      0.577930 -0.836547 -0.484048
C      1.718698 -0.868113 -1.445165
H     -0.279770 -1.463537 -0.808391
H      1.611837 -0.652473 -2.475862
C      2.887529 -1.214735 -0.803246
O      4.080734 -1.128836 -1.167271
C      1.196817 -1.418170  0.801761
O      0.658638 -1.636038  1.858795
C      3.479593 -2.125206  1.518963
C      4.135813 -3.363421  1.396863
C      3.701405 -1.299123  2.635638
C      5.141544 -3.636171  2.336888
C      4.658330 -1.631926  3.582240
H      3.099199 -0.401746  2.762377
C      5.408668 -2.792393  3.408444
H      5.742880 -4.540242  2.232111
H      4.821874 -0.993585  4.445990
H      6.191735 -3.047292  4.117500
C      3.840948 -4.420502  0.343139
C      4.770462 -4.183850 -0.856118
H      4.502546 -3.265211 -1.397124
H      5.812604 -4.066047 -0.539130
H      4.716605 -5.007471 -1.572203
C      4.113038 -5.834106  0.913549
H      3.587676 -5.980607  1.862904
H      3.766673 -6.606954  0.219310
H      5.179340 -6.014665  1.075383
C      2.371705 -4.416741 -0.110415
H      1.694478 -4.273948  0.739251
H      2.167636 -3.623781 -0.839635
H      2.100994 -5.357155 -0.600191
N      2.564335 -1.619576  0.559225
C      6.754023 -0.537099  0.822090
O      6.471165  0.649217  0.705089
H      7.592234 -0.888767  1.428689
O      6.115574 -1.513406  0.259112
H      5.189555 -1.317026 -0.319295
C      1.386570  1.641830  1.760624
C      1.243594  1.403548  0.298842
C      2.228256  1.739928 -0.573991
C      3.584645  1.876092 -0.116759
C      3.847978  2.051625  1.350313
C      2.594681  2.528981  2.083937
C      0.071852  0.626043 -0.226356
C     -1.148295  0.619954  0.687490
N      4.627140  1.706189 -0.908715
C      4.534665  1.449846 -2.370157
C      4.286452  2.775368 -3.096196
C      5.839430  0.797279 -2.828773
H      0.461529  2.105917  2.167889
H      1.456911  0.664414  2.301197
H      2.047899  1.689122 -1.649685
H      4.700759  2.739706  1.537099
H      4.204649  1.073340  1.770380
H      2.372964  3.578588  1.805890
H      2.777145  2.538038  3.176687
H     -0.231979  1.034446 -1.225828
H     -1.997962  0.119479  0.206159
H     -0.957872  0.068308  1.622503
H     -1.472814  1.631353  0.948259
H      5.567587  1.523326 -0.476621
H      3.684009  0.725211 -2.556929
H      4.189514  2.609250 -4.176495
H      3.366031  3.264848 -2.757811
H      5.110334  3.483559 -2.948401
H      6.718070  1.422224 -2.641559
H      5.806745  0.578083 -3.902898
H      5.991661 -0.172341 -2.320432
