98
TEST
H      0.722284  4.257998 -1.570622
C      1.444264  4.440012 -0.771284
C      1.044694  4.310313  0.570494
C      2.745393  4.799550 -1.080901
N     -0.292716  3.854334  0.760853
C      1.915287  4.614380  1.626726
C      3.657579  5.005351 -0.046570
H      3.057730  4.901668 -2.118250
C     -0.659105  2.588766  1.254367
C     -1.447886  4.524722  0.226495
C      1.568074  4.659999  3.107152
C      3.243943  4.907857  1.274384
H      4.696957  5.238340 -0.276903
C     -2.160815  2.501387  1.126855
O      0.089373  1.754490  1.704736
C     -2.612545  3.614657  0.535575
O     -1.413774  5.580003 -0.328442
C      2.013201  3.336536  3.749689
C      0.076698  4.903063  3.393502
C      2.326960  5.831499  3.774988
H      3.984351  5.064621  2.060190
H     -2.689043  1.631405  1.477391
H     -3.613983  3.902820  0.262190
H      3.039076  3.073943  3.464018
H      1.972100  3.391045  4.841978
H      1.374252  2.498925  3.445354
H     -0.330199  5.682928  2.740528
H     -0.076378  5.233575  4.428105
H     -0.523422  3.998190  3.277509
H      1.987270  5.986635  4.804429
H      2.162169  6.765668  3.226922
H      3.404925  5.651897  3.826202
C      6.818931  3.415387 -0.812202
C      6.178079  2.379980 -0.131432
C      6.377793  3.803658 -2.074502
H      7.669653  3.916168 -0.355075
C      5.089136  1.736864 -0.714398
H      6.545397  2.076923  0.848422
C      5.291242  3.154539 -2.661250
H      6.881136  4.609115 -2.603929
C      4.354880  0.602290 -0.037054
C      4.647898  2.123537 -1.984577
H      4.948189  3.453174 -3.649927
N      4.933216  0.220633  1.245156
C      2.897460  1.039301  0.144286
H      4.365812 -0.299487 -0.733826
H      3.791249  1.623278 -2.442558
C      5.064235 -1.133011  1.518260
H      4.873505  0.892012  2.002707
O      2.647371  1.512444  1.360692
O      2.053990  0.993630 -0.718999
O      5.405279 -1.279362  2.820212
O      4.930512 -2.015041  0.697679
H      1.636277  1.715278  1.514551
C      5.653909 -2.612252  3.333356
C      5.989092 -2.292825  4.794337
C      6.838341 -3.223972  2.597160
C      4.382111 -3.441706  3.209544
H      5.152667 -1.785705  5.291212
H      6.213716 -3.206534  5.352617
H      6.857485 -1.626564  4.865888
H      7.695756 -2.540830  2.581034
H      7.160141 -4.160013  3.063852
H      6.587366 -3.448505  1.548345
H      3.514288 -2.905280  3.612068
H      4.470909 -4.391336  3.746002
H      4.156348 -3.678092  2.157775
C     -0.769529 -1.446086 -1.233810
N     -0.032059 -0.458998 -2.045334
H     -1.723322 -1.694380 -1.769273
C     -0.657263  0.711558 -2.466604
H      0.944638 -0.358428 -1.763046
C      0.310482  1.747543 -2.984329
C     -2.001219  0.907047 -2.477667
C     -0.374976  2.729743 -3.936760
H      0.751736  2.285383 -2.115275
H      1.169541  1.263535 -3.493734
C     -2.611940  2.087532 -3.049002
H     -2.681642  0.158007 -2.091385
C     -1.686428  3.242613 -3.329647
H      0.299288  3.572993 -4.169894
H     -0.589314  2.226298 -4.900309
C     -3.925580  2.195164 -3.321582
H     -1.487963  3.792022 -2.388295
H     -2.154657  3.978565 -4.010485
C     -4.915224  1.109022 -3.075654
H     -4.616448  0.176352 -3.577467
H     -5.006880  0.885291 -2.003749
H     -5.913762  1.369601 -3.444620
H     -4.338992  3.102358 -3.748709
C      0.099942 -2.710264 -1.130170
H      0.385164 -3.072091 -2.125888
H      1.023898 -2.524752 -0.569753
H     -0.440287 -3.514658 -0.622946
C     -1.089578 -0.906938  0.171124
H     -1.761362 -0.043825  0.114595
H     -1.566312 -1.669856  0.791103
H     -0.180669 -0.573500  0.689526
