68
structure_1_MEP_image_0
C      0.600861 -1.157012 -0.601029
C      1.696989 -1.059884 -1.432170
H     -0.424800 -1.340134 -0.884453
H      1.716421 -0.828496 -2.474692
C      2.912948 -1.305560 -0.672537
O      4.083130 -1.172198 -1.000233
C      1.097112 -1.625597  0.753971
O      0.502320 -1.866555  1.765733
C      3.382126 -2.221809  1.647352
C      4.128450 -3.408597  1.550800
C      3.453472 -1.410865  2.792967
C      5.065871 -3.641557  2.570687
C      4.344243 -1.707898  3.812424
H      2.793002 -0.547399  2.880694
C      5.179866 -2.815105  3.681297
H      5.735530 -4.499577  2.496674
H      4.393644 -1.080585  4.698752
H      5.913299 -3.038957  4.452312
C      4.014883 -4.457962  0.454514
C      5.111803 -4.190367 -0.587556
H      4.923563 -3.265617 -1.147001
H      6.094643 -4.073949 -0.115399
H      5.177197 -5.004297 -1.315023
C      4.227386 -5.867212  1.058440
H      3.564062 -6.029075  1.914635
H      4.012962 -6.646919  0.319762
H      5.258505 -6.025398  1.386870
C      2.638123 -4.494399 -0.229935
H      1.828503 -4.387075  0.500235
H      2.528599 -3.713097 -0.987721
H      2.481723 -5.443693 -0.754746
N      2.514479 -1.759809  0.620197
C      6.919979 -0.416876  0.669075
O      6.669136  0.721367  0.327509
H      7.795626 -0.722064  1.244679
O      6.158673 -1.452619  0.400751
H      5.264120 -1.293590 -0.159072
C      1.447558  1.554050  1.752880
C      1.157555  1.347508  0.296710
C      2.166151  1.583639 -0.659522
C      3.505631  1.698761 -0.307699
C      3.898581  1.649046  1.146866
C      2.786409  2.256980  2.002455
C     -0.057885  0.820479 -0.107772
C     -1.192926  0.620373  0.841826
N      4.528290  1.823816 -1.176585
C      4.372128  1.891170 -2.642315
C      4.900607  3.255061 -3.114197
C      5.156386  0.746093 -3.292996
H      0.627376  2.147018  2.212796
H      1.416685  0.574364  2.281621
H      1.871547  1.623694 -1.703448
H      4.863174  2.168619  1.334636
H      4.094185  0.590721  1.434435
H      2.688948  3.336593  1.769600
H      3.054946  2.198895  3.074028
H     -0.355159  0.927939 -1.152195
H     -2.044871  0.118458  0.366593
H     -0.912723  0.009037  1.714254
H     -1.562788  1.581290  1.227194
H      5.482974  1.643853 -0.837494
H      3.286796  1.798868 -2.915715
H      4.802996  3.357484 -4.199633
H      4.347830  4.078591 -2.646612
H      5.958804  3.388872 -2.861698
H      6.229066  0.805417 -3.078862
H      5.032086  0.749623 -4.379796
H      4.809182 -0.232202 -2.921774
68
structure_1_MEP_image_1
C      0.592374 -1.178159 -0.602371
C      1.674327 -1.055514 -1.432708
H     -0.440886 -1.334960 -0.873099
H      1.702824 -0.805909 -2.471651
C      2.897053 -1.300715 -0.673164
O      4.050964 -1.170623 -1.032999
C      1.095874 -1.611717  0.761459
O      0.513800 -1.819591  1.785844
C      3.383756 -2.221688  1.644783
C      4.130766 -3.408883  1.552322
C      3.452234 -1.411130  2.791873
C      5.066866 -3.641917  2.573505
C      4.340525 -1.707710  3.811474
H      2.791681 -0.546404  2.872655
C      5.176301 -2.812829  3.684331
H      5.742266 -4.494675  2.496724
H      4.388595 -1.076747  4.695739
H      5.904351 -3.039446  4.458236
C      4.019943 -4.459721  0.458420
C      5.113632 -4.193099 -0.586726
H      4.921223 -3.270660 -1.147823
H      6.097335 -4.074407 -0.118252
H      5.178778 -5.009633 -1.311630
C      4.232825 -5.869282  1.060905
H      3.569815 -6.032648  1.916701
H      4.017288 -6.647768  0.321420
H      5.263280 -6.029896  1.389829
C      2.642678 -4.494348 -0.224544
H      1.834660 -4.394658  0.507916
H      2.529252 -3.706868 -0.974722
H      2.488081 -5.439639 -0.756650
N      2.513086 -1.757281  0.621155
C      6.928982 -0.412594  0.670443
O      6.659434  0.714637  0.318404
H      7.801357 -0.720150  1.250150
O      6.177253 -1.466682  0.411099
H      5.301175 -1.319731 -0.131409
C      1.446481  1.552592  1.754718
C      1.155225  1.350964  0.300740
C      2.176872  1.577729 -0.660056
C      3.505525  1.700196 -0.305894
C      3.898364  1.647664  1.147844
C      2.786308  2.251279  2.007061
C     -0.057248  0.844063 -0.109336
C     -1.185182  0.615213  0.834938
N      4.535405  1.823433 -1.179505
C      4.373534  1.892485 -2.642338
C      4.899634  3.257761 -3.113308
C      5.154131  0.746150 -3.295306
H      0.622640  2.145485  2.204867
H      1.411794  0.575631  2.285744
H      1.879629  1.621858 -1.700530
H      4.862448  2.161962  1.339046
H      4.095229  0.591063  1.432900
H      2.687179  3.328735  1.772499
H      3.054471  2.192137  3.078607
H     -0.338931  0.924330 -1.158502
H     -2.032626  0.110455  0.359097
H     -0.902616 -0.005636  1.698958
H     -1.548863  1.575840  1.223586
H      5.486988  1.640476 -0.843387
H      3.289715  1.799239 -2.916174
H      4.804286  3.363539 -4.197751
H      4.347332  4.079957 -2.642770
H      5.956508  3.389381 -2.859036
H      6.225471  0.804727 -3.082047
H      5.029672  0.749164 -4.381300
H      4.808824 -0.230681 -2.919733
68
structure_1_MEP_image_2
C      0.610364 -1.404907 -0.690442
C      1.669941 -1.184850 -1.484346
H     -0.443229 -1.357732 -0.904204
H      1.722951 -0.896633 -2.517689
C      2.925692 -1.382142 -0.685972
O      4.062875 -1.207473 -1.047899
C      1.090668 -1.780666  0.691206
O      0.483308 -2.009049  1.693495
C      3.390295 -2.256208  1.639331
C      4.141228 -3.441618  1.562350
C      3.456313 -1.425809  2.770440
C      5.073939 -3.660837  2.588931
C      4.346822 -1.706651  3.796405
H      2.799147 -0.556079  2.846599
C      5.181994 -2.816730  3.687154
H      5.744315 -4.519991  2.530490
H      4.399061 -1.064568  4.673883
H      5.912362 -3.030429  4.465507
C      4.037548 -4.496954  0.471387
C      5.128177 -4.221233 -0.575358
H      4.931476 -3.302240 -1.139202
H      6.112799 -4.098804 -0.107763
H      5.197378 -5.039455 -1.298585
C      4.265557 -5.901387  1.077763
H      3.605638 -6.069882  1.935700
H      4.057956 -6.684515  0.340219
H      5.298923 -6.049364  1.404547
C      2.661446 -4.554022 -0.215860
H      1.849454 -4.440915  0.510900
H      2.550760 -3.794441 -0.993155
H      2.512485 -5.516232 -0.720394
N      2.523821 -1.828813  0.593065
C      7.013537 -0.414585  0.709106
O      6.734609  0.705116  0.353070
H      7.878557 -0.724962  1.292087
O      6.268267 -1.478704  0.432065
H      5.422189 -1.315933 -0.104492
C      1.433385  1.584798  1.772024
C      1.098418  1.452132  0.313152
C      2.145736  1.638048 -0.659780
C      3.463623  1.722339 -0.310588
C      3.876606  1.657925  1.140389
C      2.780769  2.272773  2.013113
C     -0.144855  1.094283 -0.076415
C     -1.254331  0.789349  0.867419
N      4.511508  1.871810 -1.180181
C      4.359700  1.918276 -2.641710
C      4.895974  3.276559 -3.129181
C      5.143502  0.767077 -3.291599
H      0.631330  2.158620  2.281503
H      1.416797  0.580899  2.248549
H      1.833453  1.719108 -1.693148
H      4.842935  2.177341  1.314011
H      4.065369  0.601575  1.420777
H      2.689315  3.352905  1.780008
H      3.060008  2.208027  3.080061
H     -0.401224  1.043901 -1.129218
H     -2.104207  0.310083  0.366787
H     -0.936016  0.113710  1.678653
H     -1.631111  1.707283  1.338447
H      5.446045  1.649223 -0.840977
H      3.276281  1.828882 -2.917938
H      4.797687  3.376652 -4.212920
H      4.346739  4.101044 -2.657946
H      5.953055  3.404430 -2.871396
H      6.214582  0.828694 -3.070905
H      5.025962  0.772975 -4.378612
H      4.795025 -0.207294 -2.922255
68
structure_1_MEP_image_3
C      0.622834 -1.406451 -0.689137
C      1.680205 -1.180322 -1.483338
H     -0.433349 -1.339246 -0.891172
H      1.720143 -0.850260 -2.505624
C      2.943300 -1.419050 -0.700668
O      4.089387 -1.278107 -1.049916
C      1.105900 -1.798195  0.685822
O      0.504842 -2.016055  1.694800
C      3.402497 -2.284804  1.624352
C      4.155729 -3.468773  1.567418
C      3.456967 -1.438167  2.743264
C      5.076137 -3.675051  2.607248
C      4.334309 -1.706434  3.782696
H      2.796390 -0.569340  2.794890
C      5.171050 -2.817427  3.695938
H      5.745070 -4.535776  2.568541
H      4.371489 -1.054752  4.652756
H      5.891944 -3.021180  4.485023
C      4.063678 -4.534680  0.486654
C      5.150960 -4.250723 -0.560899
H      4.946042 -3.335145 -1.126999
H      6.133476 -4.116018 -0.091484
H      5.230499 -5.068600 -1.282852
C      4.311385 -5.931268  1.103212
H      3.655715 -6.101167  1.964254
H      4.113002 -6.723191  0.372793
H      5.347522 -6.062061  1.429241
C      2.683663 -4.610478 -0.190161
H      1.876822 -4.511217  0.545106
H      2.553884 -3.848386 -0.961892
H      2.544450 -5.572996 -0.696184
N      2.535751 -1.871496  0.574348
C      7.041156 -0.420511  0.712515
O      6.738264  0.693411  0.358976
H      7.915589 -0.708438  1.295327
O      6.316427 -1.500634  0.432741
H      5.467493 -1.363516 -0.093528
C      1.427591  1.595753  1.773228
C      1.084993  1.485384  0.313971
C      2.138469  1.655320 -0.657482
C      3.455948  1.731799 -0.307828
C      3.873277  1.655488  1.141496
C      2.781471  2.269532  2.020038
C     -0.165667  1.159432 -0.076892
C     -1.280638  0.858290  0.862210
N      4.504800  1.886950 -1.177563
C      4.351426  1.941044 -2.638143
C      4.890085  3.298317 -3.125868
C      5.127942  0.789541 -3.296250
H      0.634243  2.164577  2.302406
H      1.408916  0.581699  2.226843
H      1.828387  1.728572 -1.692366
H      4.840288  2.174867  1.313991
H      4.064720  0.597358  1.415836
H      2.699287  3.352850  1.797088
H      3.059372  2.192491  3.086689
H     -0.424634  1.116336 -1.129270
H     -2.149956  0.432460  0.347202
H     -0.979358  0.131356  1.633538
H     -1.624287  1.762112  1.383805
H      5.438728  1.662899 -0.839286
H      3.266429  1.858219 -2.911028
H      4.788940  3.395370 -4.209794
H      4.342609  4.124279 -2.655305
H      5.947797  3.425953 -2.871145
H      6.201061  0.847644 -3.084399
H      5.002826  0.801074 -4.382371
H      4.780059 -0.185290 -2.927629
68
structure_1_MEP_image_4
C      0.640209 -1.403511 -0.695327
C      1.699197 -1.175541 -1.487756
H     -0.413195 -1.314691 -0.896564
H      1.741307 -0.833093 -2.508539
C      2.959354 -1.442878 -0.707467
O      4.105739 -1.302688 -1.052801
C      1.116449 -1.832042  0.670287
O      0.508320 -2.061680  1.671062
C      3.409041 -2.313949  1.617575
C      4.166029 -3.495955  1.578072
C      3.457835 -1.454006  2.726574
C      5.080217 -3.690936  2.625557
C      4.330897 -1.708505  3.773368
H      2.797827 -0.584353  2.767458
C      5.168019 -2.820907  3.705121
H      5.749410 -4.553303  2.601937
H      4.363904 -1.046742  4.637467
H      5.883600 -3.016876  4.502161
C      4.086528 -4.569984  0.504877
C      5.169229 -4.280187 -0.546184
H      4.954837 -3.368086 -1.114266
H      6.151558 -4.135796 -0.079411
H      5.254199 -5.099943 -1.266143
C      4.351846 -5.961267  1.126172
H      3.699607 -6.136856  1.988739
H      4.161651 -6.758170  0.398334
H      5.390343 -6.078981  1.450480
C      2.706547 -4.663156 -0.169000
H      1.900227 -4.567738  0.567323
H      2.567781 -3.904084 -0.942074
H      2.575606 -5.628787 -0.671239
N      2.545693 -1.915224  0.558595
C      7.051188 -0.423769  0.706764
O      6.730035  0.685893  0.356429
H      7.930882 -0.702480  1.287255
O      6.340177 -1.512792  0.424588
H      5.489586 -1.384354 -0.098474
C      1.421230  1.601852  1.774674
C      1.073756  1.515964  0.315387
C      2.128648  1.679718 -0.655504
C      3.446465  1.743733 -0.306470
C      3.865962  1.659377  1.141012
C      2.777562  2.269274  2.025621
C     -0.181290  1.212205 -0.077707
C     -1.301379  0.931152  0.861568
N      4.496480  1.902626 -1.175389
C      4.341483  1.959157 -2.635652
C      4.882249  3.315771 -3.123700
C      5.112793  0.805731 -3.296909
H      0.631308  2.163719  2.315540
H      1.401175  0.580583  2.212768
H      1.819464  1.764000 -1.689392
H      4.834912  2.173828  1.316922
H      4.055032  0.600704  1.409073
H      2.699103  3.354074  1.810987
H      3.055664  2.183706  3.091383
H     -0.438693  1.170561 -1.129724
H     -2.195169  0.563638  0.342036
H     -1.021652  0.173646  1.613108
H     -1.603220  1.834616  1.410273
H      5.429754  1.669215 -0.840027
H      3.256202  1.879852 -2.908171
H      4.781808  3.414301 -4.208056
H      4.336490  4.142790 -2.652425
H      5.940117  3.441162 -2.869149
H      6.186419  0.862016 -3.088242
H      4.984687  0.817781 -4.382998
H      4.764322 -0.168188 -2.926395
68
structure_1_MEP_image_5
C      0.658091 -1.410016 -0.709892
C      1.722463 -1.177221 -1.492071
H     -0.394787 -1.292899 -0.908298
H      1.785427 -0.814946 -2.502454
C      2.978104 -1.460897 -0.711212
O      4.123503 -1.310573 -1.061344
C      1.130199 -1.865560  0.648981
O      0.519372 -2.114391  1.644751
C      3.420706 -2.343390  1.611936
C      4.178897 -3.525785  1.589788
C      3.461323 -1.472873  2.713557
C      5.083207 -3.708977  2.648428
C      4.327755 -1.713686  3.768833
H      2.799321 -0.604047  2.737990
C      5.164665 -2.826790  3.718697
H      5.754115 -4.569593  2.640526
H      4.358022 -1.038511  4.621838
H      5.876168 -3.011739  4.521410
C      4.111190 -4.608349  0.523244
C      5.188233 -4.311839 -0.531822
H      4.964923 -3.403392 -1.101995
H      6.171141 -4.159713 -0.068720
H      5.278247 -5.132735 -1.249668
C      4.394493 -5.993938  1.149375
H      3.746257 -6.174558  2.013578
H      4.213533 -6.797229  0.426439
H      5.434916 -6.097621  1.472040
C      2.730456 -4.717824 -0.147070
H      1.924559 -4.627619  0.590158
H      2.582307 -3.962027 -0.921685
H      2.607439 -5.686998 -0.644542
N      2.562368 -1.947830  0.545745
C      7.049988 -0.426619  0.695066
O      6.712880  0.680161  0.350513
H      7.935294 -0.696953  1.270542
O      6.353131 -1.524481  0.412453
H      5.499441 -1.404308 -0.111390
C      1.414904  1.606142  1.777243
C      1.066117  1.537946  0.316562
C      2.121800  1.704452 -0.653523
C      3.439039  1.759000 -0.304464
C      3.857830  1.662977  1.142851
C      2.771769  2.269784  2.033262
C     -0.195055  1.265828 -0.078841
C     -1.321216  1.015276  0.861013
N      4.488695  1.919648 -1.174724
C      4.329458  1.976401 -2.634720
C      4.872959  3.332421 -3.120003
C      5.096744  0.821289 -3.297333
H      0.626323  2.164278  2.324244
H      1.396462  0.581813  2.205862
H      1.811292  1.803017 -1.686087
H      4.827618  2.175409  1.320183
H      4.043032  0.600790  1.402015
H      2.692461  3.356460  1.828386
H      3.050768  2.175826  3.098012
H     -0.456273  1.235416 -1.130079
H     -2.232069  0.696757  0.341302
H     -1.074968  0.225927  1.587387
H     -1.573414  1.918932  1.435136
H      5.418888  1.673124 -0.843014
H      3.243199  1.900098 -2.903818
H      4.773029  3.433311 -4.203558
H      4.327926  4.158426 -2.646301
H      5.930507  3.455212 -2.862386
H      6.171210  0.875968 -3.091559
H      4.965635  0.831400 -4.382661
H      4.747931 -0.151768 -2.925418
68
structure_1_MEP_image_6
C      0.678717 -1.422449 -0.719780
C      1.745215 -1.182893 -1.494738
H     -0.371317 -1.303498 -0.923699
H      1.813276 -0.822150 -2.506535
C      2.996975 -1.483072 -0.712572
O      4.140543 -1.336906 -1.064632
C      1.141049 -1.899321  0.635648
O      0.523869 -2.178401  1.618633
C      3.428849 -2.374072  1.607472
C      4.190345 -3.554190  1.598924
C      3.462348 -1.488064  2.696708
C      5.086850 -3.725033  2.665913
C      4.323658 -1.715801  3.758594
H      2.799779 -0.619036  2.705300
C      5.160161 -2.829955  3.726091
H      5.756776 -4.585936  2.672347
H      4.348614 -1.029877  4.602589
H      5.865906 -3.005467  4.535724
C      4.132698 -4.642608  0.538089
C      5.205547 -4.340248 -0.519692
H      4.974657 -3.434687 -1.091437
H      6.188154 -4.180014 -0.058492
H      5.299544 -5.162502 -1.235544
C      4.432119 -6.021948  1.169928
H      3.786978 -6.205762  2.035948
H      4.258485 -6.829124  0.449646
H      5.474507 -6.112067  1.490800
C      2.751474 -4.768338 -0.128324
H      1.946849 -4.680750  0.611097
H      2.594745 -4.016968 -0.905871
H      2.636638 -5.741309 -0.620108
N      2.573383 -1.992056  0.533751
C      7.062333 -0.430462  0.691208
O      6.712815  0.673748  0.351342
H      7.948871 -0.695580  1.265331
O      6.378346 -1.535856  0.404159
H      5.525025 -1.421023 -0.114725
C      1.408292  1.614988  1.779781
C      1.054026  1.570094  0.319241
C      2.110419  1.734325 -0.651506
C      3.428128  1.777545 -0.303433
C      3.849258  1.669333  1.142653
C      2.767391  2.273784  2.039821
C     -0.214109  1.331160 -0.074936
C     -1.343524  1.090815  0.865511
N      4.478730  1.931104 -1.174389
C      4.318063  1.993503 -2.633795
C      4.864906  3.348552 -3.117854
C      5.082439  0.837317 -3.297558
H      0.623326  2.166504  2.339466
H      1.389699  0.583970  2.191264
H      1.797725  1.839839 -1.683243
H      4.822249  2.175177  1.321565
H      4.030174  0.604319  1.393465
H      2.692919  3.362852  1.843247
H      3.048041  2.170411  3.103527
H     -0.476913  1.322810 -1.127214
H     -2.269581  0.827403  0.339559
H     -1.126294  0.273755  1.572806
H     -1.553339  1.991367  1.461327
H      5.407085  1.677841 -0.842894
H      3.231420  1.921073 -2.903030
H      4.765738  3.449309 -4.201482
H      4.322323  4.176614 -2.645043
H      5.922719  3.468497 -2.860442
H      6.157135  0.891586 -3.092823
H      4.950094  0.847769 -4.382573
H      4.733511 -0.135069 -2.923614
68
structure_1_MEP_image_7
C      0.693928 -1.443355 -0.732574
C      1.763445 -1.204003 -1.504036
H     -0.355912 -1.310877 -0.933453
H      1.830274 -0.824617 -2.508386
C      3.013551 -1.516110 -0.721491
O      4.161687 -1.366027 -1.057712
C      1.150899 -1.944474  0.615543
O      0.528995 -2.234992  1.591818
C      3.435976 -2.400872  1.599662
C      4.200779 -3.578701  1.607001
C      3.464408 -1.502623  2.678972
C      5.089228 -3.738761  2.682239
C      4.319574 -1.717865  3.748311
H      2.802082 -0.633662  2.675282
C      5.155886 -2.832469  3.733416
H      5.758384 -4.600030  2.702758
H      4.340421 -1.022306  4.584680
H      5.856406 -2.998956  4.549319
C      4.153167 -4.674011  0.552783
C      5.221600 -4.366834 -0.508070
H      4.983913 -3.464244 -1.081269
H      6.203841 -4.198998 -0.048864
H      5.320106 -5.190257 -1.222046
C      4.467582 -6.047703  1.189139
H      3.825767 -6.235857  2.056524
H      4.300987 -6.859174  0.472046
H      5.511436 -6.126554  1.508111
C      2.771644 -4.815604 -0.110111
H      1.967784 -4.731614  0.630636
H      2.606472 -4.069930 -0.891297
H      2.663844 -5.791880 -0.596799
N      2.583411 -2.031689  0.519239
C      7.081447 -0.435435  0.692187
O      6.719525  0.665684  0.355403
H      7.971471 -0.691160  1.266444
O      6.408984 -1.547009  0.399994
H      5.553265 -1.440331 -0.118142
C      1.401346  1.626669  1.782942
C      1.039547  1.608391  0.323499
C      2.097563  1.763184 -0.647999
C      3.415738  1.792629 -0.302386
C      3.840244  1.673682  1.141792
C      2.763628  2.277318  2.045508
C     -0.233273  1.398228 -0.070211
C     -1.365877  1.171337  0.868738
N      4.467867  1.946159 -1.173332
C      4.307662  2.010904 -2.632661
C      4.858172  3.364491 -3.117308
C      5.069395  0.853330 -3.297732
H      0.622449  2.168320  2.359310
H      1.383494  0.587997  2.173892
H      1.784619  1.875214 -1.678657
H      4.815282  2.175802  1.320135
H      4.018969  0.606912  1.386276
H      2.693425  3.367961  1.856393
H      3.046294  2.165448  3.107626
H     -0.498839  1.401715 -1.121245
H     -2.301690  0.952936  0.341454
H     -1.169739  0.326849  1.546448
H     -1.549741  2.055251  1.496541
H      5.394210  1.683209 -0.843096
H      3.220830  1.941795 -2.901746
H      4.759329  3.464835 -4.201094
H      4.317496  4.194006 -2.644875
H      5.916341  3.482217 -2.860228
H      6.144672  0.906538 -3.094912
H      4.936048  0.864315 -4.382642
H      4.720272 -0.118649 -2.923477
