98
temp
C         -2.30654       -3.13427        1.75504
C         -1.90340       -2.11642        0.69171
C         -0.44067       -1.76460        0.62102
C          0.50552       -2.24539        1.47568
C          0.14214       -3.35791        2.45359
C         -1.13610       -4.08495        2.03404
C         -2.81055       -1.53782       -0.18165
C         -4.29286       -1.96499       -0.20759
N          1.79496       -1.58219        1.46969
C          3.05801       -1.94989        2.11666
C          3.65614       -3.16538        1.43316
C          3.01760       -2.12624        3.64532
H         -2.71167       -2.65595        2.65688
H         -3.09116       -3.81627        1.37502
H         -0.12962       -1.00643       -0.07774
H          0.94084       -4.12377        2.47020
H          0.01158       -2.98489        3.48056
H         -0.91372       -4.62437        1.08597
H         -1.41486       -4.84081        2.79994
H         -2.36624       -1.19917       -1.12777
H         -4.61800       -2.56340        0.66040
H         -4.46679       -2.56066       -1.12801
H         -5.01491       -1.12699       -0.23133
H          1.86917       -0.72792        0.88778
H          3.77596       -1.11535        1.93243
H          3.75382       -2.94876        0.34788
H          3.02092       -4.05746        1.57707
H          4.67041       -3.35971        1.84274
H          4.03970       -2.35551        4.01650
H          2.35555       -2.95298        3.96311
H          2.74542       -1.19114        4.16024
N          4.42178       -0.13794       -2.97375
C          3.83595        1.06033       -2.40088
C          2.65372        0.72548       -1.54244
O          2.69058       -0.22028       -0.76674
C          4.84950        1.85379       -1.60850
C          6.73858        3.38144       -0.20195
C          5.43921        1.34775       -0.43501
C          5.21324        3.13617       -2.05932
C          6.15524        3.89152       -1.36257
C          6.37769        2.11373        0.26456
O          1.65780        1.62155       -1.45864
C          3.83578       -0.77228       -4.02053
O          2.69681       -0.25629       -4.56644
O          4.36095       -1.77295       -4.48536
C          1.95648       -0.73457       -5.63881
C          0.78293        0.23453       -5.85941
C          1.39945       -2.12936       -5.30704
C          2.80857       -0.77377       -6.92563
H          5.32342       -0.49006       -2.61518
H          3.48667        1.71294       -3.23208
H          7.47000        3.97029        0.33472
H          5.17204        0.36770       -0.06048
H          4.77294        3.55141       -2.95817
H          6.43218        4.87219       -1.72700
H          6.82817        1.72387        1.16745
H          1.01482        1.56695       -0.73391
H          0.14187       -0.10649       -6.70153
H          1.15848        1.25391       -6.09735
H          0.15666        0.30287       -4.94412
H          0.74410       -2.49632       -6.12453
H          2.21783       -2.86434       -5.16650
H          0.80910       -2.08457       -4.36608
H          2.19321       -1.10110       -7.79134
H          3.21893        0.23528       -7.14846
H          3.65852       -1.47922       -6.83376
C         -2.92504        0.60807        0.01230
C         -1.63570        0.90200       -0.44641
H         -3.76800        0.44388       -0.65724
H         -1.26652        0.76453       -1.45503
C         -0.91084        1.47516        0.66679
O          0.26253        1.81524        0.62054
C         -2.95706        1.23912        1.36204
O         -3.96652        1.44632        2.01720
C         -1.32853        2.47305        2.84586
C         -0.94464        1.93513        4.12245
C         -1.21404        3.85660        2.62268
C         -0.43836        2.84115        5.08786
C         -0.73147        4.71187        3.60724
H         -1.48395        4.26995        1.65887
C         -0.33724        4.20180        4.83355
H         -0.07405        2.51605        6.04699
H         -0.63874        5.77081        3.41069
H          0.07055        4.85737        5.59165
C         -0.89292        0.43228        4.44698
C          0.43448       -0.05430        3.89516
H          0.49290        0.12033        2.80379
H          1.27463        0.49684        4.36906
H          0.55502       -1.11491        4.12883
C         -0.92273        0.09591        5.96162
H         -1.84969        0.49066        6.42524
H         -0.90533       -1.00879        6.11042
H         -0.02928        0.45963        6.50391
C         -2.05723       -0.35283        3.83670
H         -3.02816        0.13094        4.06942
H         -1.92241       -0.47279        2.75615
H         -2.08093       -1.38383        4.23638
N         -1.71921        1.68549        1.71554
