98
temp
C     -2.241081 -3.027260  1.804021
C     -1.881333 -1.975805  0.781820
C     -0.508156 -1.486408  0.826387
C      0.467938 -1.988712  1.612084
C      0.174984 -3.182949  2.497207
C     -1.069232 -3.963459  2.072535
C     -2.738783 -1.477848 -0.130610
C     -4.185690 -1.817553 -0.299919
N      1.729329 -1.404210  1.618546
C      2.999539 -1.816379  2.203174
C      3.587578 -3.017807  1.472629
C      2.930885 -2.010365  3.712333
H     -2.536052 -2.530938  2.737340
H     -3.089849 -3.636406  1.477260
H     -0.280023 -0.640014  0.182537
H      1.008161 -3.889559  2.493128
H      0.045949 -2.829956  3.527836
H     -0.846870 -4.545064  1.167933
H     -1.336914 -4.683912  2.854088
H     -2.381298 -0.728736 -0.836308
H     -4.588659 -2.427570  0.511293
H     -4.334440 -2.351380 -1.243348
H     -4.774368 -0.894963 -0.334756
H      1.836147 -0.673225  0.917931
H      3.690650 -0.979642  2.035686
H      3.655127 -2.822431  0.396652
H      2.987337 -3.921722  1.604683
H      4.596824 -3.234151  1.838762
H      3.941400 -2.071114  4.131651
H      2.415464 -2.931531  3.994942
H      2.417566 -1.171763  4.194687
N      4.366607 -0.043531 -3.016899
C      3.735231  1.087385 -2.351612
C      2.605565  0.594529 -1.432525
O      2.550864 -0.475145 -0.842071
C      4.776907  1.887216 -1.589672
C      6.731620  3.379124 -0.229183
C      5.378278  1.386582 -0.421921
C      5.183557  3.142359 -2.069837
C      6.152348  3.884000 -1.391144
C      6.346484  2.130915  0.254424
O      1.614614  1.500703 -1.275204
C      3.828427 -0.724151 -4.064813
O      2.707612 -0.136082 -4.542467
O      4.336959 -1.752577 -4.484919
C      1.973994 -0.722654 -5.647893
C      0.789541  0.229220 -5.874802
C      1.426224 -2.105998 -5.280194
C      2.822854 -0.760995 -6.923025
H      5.108939 -0.537635 -2.542368
H      3.270482  1.714641 -3.122620
H      7.486805  3.956935  0.297428
H      5.098809  0.410809 -0.026943
H      4.749640  3.552405 -2.979818
H      6.457655  4.855445 -1.771630
H      6.802481  1.734682  1.158365
H      0.991378  1.063626 -0.657535
H      0.147632 -0.107723 -6.695471
H      1.141890  1.241818 -6.103818
H      0.178101  0.312995 -4.968553
H      0.736167 -2.477533 -6.045465
H      2.224379 -2.846636 -5.172608
H      0.897799 -2.072335 -4.320848
H      2.222014 -1.046970 -7.793133
H      3.275429  0.217686 -7.118286
H      3.646357 -1.477260 -6.844982
C     -3.028375  0.623388  0.010618
C     -1.765155  0.361295 -0.337523
H     -3.953821  0.349042 -0.472730
H     -1.376353 -0.185177 -1.183461
C     -0.810083  0.969411  0.675421
O      0.388769  0.939204  0.701668
C     -3.054707  1.435876  1.293433
O     -3.992003  1.853082  1.913150
C     -1.199960  2.376812  2.782607
C     -0.809429  1.788423  4.002642
C     -1.159738  3.771113  2.582075
C     -0.327177  2.669131  4.991689
C     -0.703830  4.608848  3.595709
H     -1.484586  4.192587  1.631169
C     -0.277146  4.049424  4.804202
H      0.027061  2.263819  5.943244
H     -0.674960  5.686501  3.445901
H      0.096057  4.692287  5.600038
C     -0.815027  0.281860  4.301542
C      0.503416 -0.297788  3.757180
H      0.651343 -0.059048  2.695629
H      1.370080  0.109876  4.289224
H      0.535036 -1.386329  3.859687
C     -0.886839  0.023036  5.824625
H     -1.804878  0.438321  6.254661
H     -0.878092 -1.050880  6.039444
H     -0.036472  0.458993  6.360849
C     -2.024348 -0.440085  3.676593
H     -2.933090  0.170134  3.745805
H     -1.858462 -0.704117  2.630092
H     -2.234081 -1.383252  4.195223
N     -1.664041  1.614128  1.640602
