98
OOF_MEP_guess_image_0
H      0.722284  4.257998 -1.570622
C      1.444264  4.440012 -0.771284
C      1.044694  4.310313  0.570494
C      2.745393  4.799550 -1.080901
N     -0.292716  3.854334  0.760853
C      1.915287  4.614380  1.626726
C      3.657579  5.005351 -0.046570
H      3.057730  4.901668 -2.118250
C     -0.659105  2.588766  1.254367
C     -1.447886  4.524722  0.226495
C      1.568074  4.659999  3.107152
C      3.243943  4.907857  1.274384
H      4.696957  5.238340 -0.276903
C     -2.160815  2.501387  1.126855
O      0.089373  1.754490  1.704736
C     -2.612545  3.614657  0.535575
O     -1.413774  5.580003 -0.328442
C      2.013201  3.336536  3.749689
C      0.076698  4.903063  3.393502
C      2.326960  5.831499  3.774988
H      3.984351  5.064621  2.060190
H     -2.689043  1.631405  1.477391
H     -3.613983  3.902820  0.262190
H      3.039076  3.073943  3.464018
H      1.972100  3.391045  4.841978
H      1.374252  2.498925  3.445354
H     -0.330199  5.682928  2.740528
H     -0.076378  5.233575  4.428105
H     -0.523422  3.998190  3.277509
H      1.987270  5.986635  4.804429
H      2.162169  6.765668  3.226922
H      3.404925  5.651897  3.826202
C      6.818931  3.415387 -0.812202
C      6.178079  2.379980 -0.131432
C      6.377793  3.803658 -2.074502
H      7.669653  3.916168 -0.355075
C      5.089136  1.736864 -0.714398
H      6.545397  2.076923  0.848422
C      5.291242  3.154539 -2.661250
H      6.881136  4.609115 -2.603929
C      4.354880  0.602290 -0.037054
C      4.647898  2.123537 -1.984577
H      4.948189  3.453174 -3.649927
N      4.933216  0.220633  1.245156
C      2.897460  1.039301  0.144286
H      4.365812 -0.299487 -0.733826
H      3.791249  1.623278 -2.442558
C      5.064235 -1.133011  1.518260
H      4.873505  0.892012  2.002707
O      2.647371  1.512444  1.360692
O      2.053990  0.993630 -0.718999
O      5.405279 -1.279362  2.820212
O      4.930512 -2.015041  0.697679
H      1.636277  1.715278  1.514551
C      5.653909 -2.612252  3.333356
C      5.989092 -2.292825  4.794337
C      6.838341 -3.223972  2.597160
C      4.382111 -3.441706  3.209544
H      5.152667 -1.785705  5.291212
H      6.213716 -3.206534  5.352617
H      6.857485 -1.626564  4.865888
H      7.695756 -2.540830  2.581034
H      7.160141 -4.160013  3.063852
H      6.587366 -3.448505  1.548345
H      3.514288 -2.905280  3.612068
H      4.470909 -4.391336  3.746002
H      4.156348 -3.678092  2.157775
C     -0.769529 -1.446086 -1.233810
N     -0.032059 -0.458998 -2.045334
H     -1.723322 -1.694380 -1.769273
C     -0.657263  0.711558 -2.466604
H      0.944638 -0.358428 -1.763046
C      0.310482  1.747543 -2.984329
C     -2.001219  0.907047 -2.477667
C     -0.374976  2.729743 -3.936760
H      0.751736  2.285383 -2.115275
H      1.169541  1.263535 -3.493734
C     -2.611940  2.087532 -3.049002
H     -2.681642  0.158007 -2.091385
C     -1.686428  3.242613 -3.329647
H      0.299288  3.572993 -4.169894
H     -0.589314  2.226298 -4.900309
C     -3.925580  2.195164 -3.321582
H     -1.487963  3.792022 -2.388295
H     -2.154657  3.978565 -4.010485
C     -4.915224  1.109022 -3.075654
H     -4.616448  0.176352 -3.577467
H     -5.006880  0.885291 -2.003749
H     -5.913762  1.369601 -3.444620
H     -4.338992  3.102358 -3.748709
C      0.099942 -2.710264 -1.130170
H      0.385164 -3.072091 -2.125888
H      1.023898 -2.524752 -0.569753
H     -0.440287 -3.514658 -0.622946
C     -1.089578 -0.906938  0.171124
H     -1.761362 -0.043825  0.114595
H     -1.566312 -1.669856  0.791103
H     -0.180669 -0.573500  0.689526
98
OOF_MEP_guess_image_1
H      0.793547  4.256314 -1.548785
C      1.496119  4.383486 -0.735794
C      1.064116  4.189607  0.574350
C      2.803104  4.740600 -0.996504
N     -0.277339  3.749526  0.709572
C      1.910840  4.425023  1.651786
C      3.689706  4.882085  0.055611
H      3.138724  4.891973 -2.009891
C     -0.674487  2.474859  1.138462
C     -1.410453  4.457489  0.205594
C      1.530935  4.392937  3.108931
C      3.245268  4.721419  1.347061
H      4.731966  5.116434 -0.136780
C     -2.156182  2.413902  1.005891
O      0.071535  1.613347  1.535049
C     -2.597632  3.566972  0.444982
O     -1.354048  5.530354 -0.293447
C      1.947340  3.042157  3.671312
C      0.039050  4.645540  3.378769
C      2.284032  5.494801  3.851341
H      3.966119  4.830403  2.148181
H     -2.709940  1.556524  1.321181
H     -3.568576  3.875330  0.304128
H      2.976347  2.781586  3.396099
H      1.875146  3.032740  4.748416
H      1.312929  2.246544  3.305101
H     -0.344408  5.457564  2.767546
H     -0.135666  4.920289  4.415513
H     -0.565975  3.767914  3.202591
H      1.921904  5.593230  4.868743
H      2.141428  6.451093  3.365622
H      3.356404  5.294013  3.909525
C      6.752009  3.410796 -1.030189
C      6.145874  2.387732 -0.312365
C      6.299781  3.738916 -2.296736
H      7.583967  3.949652 -0.598703
C      5.079706  1.696297 -0.861470
H      6.521921  2.131770  0.670910
C      5.239415  3.039654 -2.850670
H      6.774729  4.535813 -2.854787
C      4.382581  0.577597 -0.137196
C      4.631515  2.019978 -2.137057
H      4.889261  3.289981 -3.842781
N      4.932326  0.304761  1.156710
C      2.913500  0.935732  0.005263
H      4.455879 -0.339549 -0.770278
H      3.798688  1.477844 -2.571841
C      5.069089 -1.003359  1.521761
H      4.819709  1.004334  1.854321
O      2.613879  1.421792  1.188690
O      2.114605  0.816234 -0.870484
O      5.350168 -1.053468  2.815828
O      4.988888 -1.923977  0.777972
H      1.581973  1.590708  1.339541
C      5.580414 -2.320113  3.419707
C      5.837852 -1.902665  4.834665
C      6.794916 -2.931835  2.792113
C      4.332137 -3.180532  3.307604
H      4.980127 -1.399338  5.249997
H      6.039866 -2.756232  5.452265
H      6.689497 -1.217627  4.891361
H      7.640491 -2.236564  2.762883
H      7.097270 -3.811630  3.325167
H      6.599403 -3.225856  1.774562
H      3.448072 -2.654607  3.628339
H      4.401017 -4.075481  3.900815
H      4.161318 -3.486181  2.289515
C     -0.809817 -1.449873 -1.364991
N     -0.039959 -0.449194 -2.105433
H     -1.770019 -1.626576 -1.887231
C     -0.620416  0.734768 -2.496589
H      0.942533 -0.398292 -1.840932
C      0.368919  1.756461 -2.991590
C     -1.958574  0.982332 -2.472721
C     -0.295048  2.765083 -3.926264
H      0.815773  2.270001 -2.111582
H      1.223931  1.267875 -3.504025
C     -2.507852  2.186156 -2.961453
H     -2.652687  0.246134 -2.085246
C     -1.579995  3.309077 -3.300025
H      0.400462  3.588649 -4.159438
H     -0.531050  2.280902 -4.891937
C     -3.786678  2.369542 -3.074840
H     -1.348599  3.883473 -2.387725
H     -2.061921  4.031911 -3.985036
C     -4.830533  1.346545 -2.893458
H     -4.613466  0.542394 -3.474958
H     -4.912927  1.008009 -1.919421
H     -5.798330  1.649714 -3.134438
H     -4.152770  3.303431 -3.473670
C      0.012349 -2.716676 -1.368623
H      0.273844 -3.011942 -2.376985
H      0.943872 -2.598894 -0.829105
H     -0.548193 -3.526094 -0.908411
C     -1.101037 -1.009916  0.055587
H     -1.741692 -0.143008  0.074387
H     -1.596002 -1.788043  0.625896
H     -0.181720 -0.739151  0.569587
98
OOF_MEP_guess_image_2
H      0.864811  4.254630 -1.526948
C      1.547975  4.326961 -0.700305
C      1.083537  4.068902  0.578206
C      2.860814  4.681649 -0.912106
N     -0.261962  3.644718  0.658292
C      1.906393  4.235667  1.676846
C      3.721833  4.758818  0.157792
H      3.219719  4.882278 -1.901533
C     -0.689869  2.360953  1.022557
C     -1.373020  4.390257  0.184694
C      1.493795  4.125875  3.110711
C      3.246592  4.534980  1.419738
H      4.766976  4.994527  0.003343
C     -2.151550  2.326416  0.884927
O      0.053698  1.472204  1.365361
C     -2.582719  3.519288  0.354388
O     -1.294323  5.480706 -0.258451
C      1.881479  2.747779  3.592935
C      0.001401  4.388017  3.364037
C      2.241104  5.158104  3.927695
H      3.947888  4.596186  2.236173
H     -2.730837  1.481643  1.164971
H     -3.523169  3.847840  0.346066
H      2.913618  2.489230  3.328180
H      1.778192  2.674435  4.654854
H      1.251607  1.994164  3.164848
H     -0.358616  5.232199  2.794565
H     -0.194953  4.607002  4.402920
H     -0.608527  3.537638  3.127673
H      1.856538  5.199825  4.933058
H      2.120688  6.136519  3.504322
H      3.307884  4.936130  3.992848
C      6.685087  3.406205 -1.248176
C      6.113668  2.395485 -0.493297
C      6.221769  3.674175 -2.518969
H      7.498281  3.983136 -0.842332
C      5.070276  1.655729 -1.008542
H      6.498445  2.186617  0.493399
C      5.187587  2.924769 -3.040091
H      6.668322  4.462511 -3.105644
C      4.410282  0.552904 -0.237339
C      4.615131  1.916419 -2.289538
H      4.830332  3.126789 -4.035635
N      4.931436  0.388889  1.068264
C      2.929541  0.832164 -0.133760
H      4.545945 -0.379611 -0.806730
H      3.806128  1.332410 -2.701124
C      5.073943 -0.873706  1.525261
H      4.765912  1.116655  1.705936
O      2.580387  1.331140  1.016687
O      2.175220  0.638837 -1.021968
O      5.295058 -0.827575  2.811445
O      5.047265 -1.832914  0.858266
H      1.527670  1.466138  1.164531
C      5.506919 -2.027974  3.506059
C      5.686611 -1.512505  4.874993
C      6.751491 -2.639697  2.987067
C      4.282163 -2.919359  3.405664
H      4.807587 -1.012970  5.208783
H      5.866016 -2.305930  5.551913
H      6.521508 -0.808690  4.916834
H      7.585226 -1.932299  2.944732
H      7.034398 -3.463248  3.586481
H      6.611439 -3.003207  2.000778
H      3.381857 -2.403934  3.644610
H      4.331126 -3.759627  4.055627
H      4.166288 -3.294271  2.421255
C     -0.850106 -1.453660 -1.496172
N     -0.047859 -0.439390 -2.165531
H     -1.816716 -1.558771 -2.005190
C     -0.583570  0.757978 -2.526575
H      0.940429 -0.438156 -1.918818
C      0.427357  1.765379 -2.998851
C     -1.915930  1.057617 -2.467775
C     -0.215121  2.800423 -3.915769
H      0.879810  2.254619 -2.107890
H      1.278322  1.272216 -3.514315
C     -2.403764  2.284781 -2.873904
H     -2.623731  0.334260 -2.079107
C     -1.473563  3.375542 -3.270404
H      0.501635  3.604306 -4.148981
H     -0.472785  2.335506 -4.883565
C     -3.647776  2.543920 -2.828098
H     -1.209235  3.974924 -2.387155
H     -1.969185  4.085257 -3.959586
C     -4.745841  1.584068 -2.711263
H     -4.610485  0.908437 -3.372449
H     -4.818975  1.130728 -1.835094
H     -5.682899  1.929826 -2.824256
H     -3.966548  3.504504 -3.198632
C     -0.075244 -2.723088 -1.607076
H      0.162524 -2.951793 -2.628083
H      0.863846 -2.673036 -1.088457
H     -0.656098 -3.537530 -1.193875
C     -1.112497 -1.112895 -0.059949
H     -1.722022 -0.242191  0.034178
H     -1.625693 -1.906231  0.460688
H     -0.182772 -0.904803  0.449648
98
OOF_MEP_guess_image_3
H      0.936074  4.252946 -1.505111
C      1.599830  4.270435 -0.664815
C      1.102959  3.948196  0.582062
C      2.918525  4.622699 -0.827709
N     -0.246585  3.539910  0.607011
C      1.901946  4.046310  1.701906
C      3.753960  4.635552  0.259973
H      3.300713  4.872583 -1.793174
C     -0.705251  2.247046  0.906652
C     -1.335587  4.323024  0.163793
C      1.456656  3.858813  3.112490
C      3.247917  4.348542  1.492415
H      4.801985  4.872621  0.143466
C     -2.146917  2.238931  0.763963
O      0.035860  1.331061  1.195674
C     -2.567806  3.471603  0.263795
O     -1.234597  5.431057 -0.223456
C      1.815618  2.453400  3.514558
C     -0.036247  4.130494  3.349304
C      2.198176  4.821406  4.004048
H      3.929656  4.361968  2.324164
H     -2.751734  1.406762  1.008761
H     -3.477762  3.820350  0.388004
H      2.850889  2.196873  3.260261
H      1.681238  2.316130  4.561292
H      1.190284  1.741783  3.024595
H     -0.372825  5.006835  2.821583
H     -0.254241  4.293716  4.390328
H     -0.651080  3.307362  3.052755
H      1.791172  4.806420  4.997372
H      2.099947  5.821944  3.643022
H      3.259363  4.578246  4.076171
C      6.618165  3.401614 -1.466163
C      6.081463  2.403237 -0.674230
C      6.143757  3.609433 -2.741203
H      7.412595  4.016620 -1.085960
C      5.060846  1.615162 -1.155614
H      6.474969  2.241464  0.315887
C      5.135760  2.809884 -3.229511
H      6.561915  4.389209 -3.356502
C      4.437983  0.528211 -0.337481
C      4.598748  1.812860 -2.442018
H      4.771404  2.963596 -4.228489
N      4.930546  0.473017  0.979818
C      2.945581  0.728595 -0.272783
H      4.636012 -0.419673 -0.843182
H      3.813567  1.186976 -2.830407
C      5.078797 -0.744054  1.528762
H      4.712116  1.228977  1.557550
O      2.546895  1.240488  0.844685
O      2.235835  0.461441 -1.173453
O      5.239947 -0.601681  2.807061
O      5.105641 -1.741850  0.938559
H      1.473366  1.341568  0.989521
C      5.433424 -1.735835  3.592410
C      5.535371 -1.122345  4.915321
C      6.708066 -2.347560  3.182020
C      4.232189 -2.658185  3.503724
H      4.635047 -0.626603  5.167568
H      5.692166 -1.855628  5.651561
H      6.353520 -0.399753  4.942307
H      7.529961 -1.628033  3.126581
H      6.971527 -3.114865  3.847796
H      6.623476 -2.780558  2.226995
H      3.315641 -2.153261  3.660881
H      4.261234 -3.443772  4.210440
H      4.171258 -3.102360  2.552995
C     -0.890394 -1.457447 -1.627353
N     -0.055759 -0.429586 -2.225630
H     -1.863413 -1.490967 -2.123148
C     -0.546723  0.781188 -2.556560
H      0.938324 -0.478020 -1.996704
C      0.485794  1.774297 -3.006112
C     -1.873285  1.132902 -2.462829
C     -0.135193  2.835763 -3.905273
H      0.943847  2.239237 -2.104197
H      1.332712  1.276556 -3.524606
C     -2.299676  2.383405 -2.786355
H     -2.594776  0.422387 -2.072968
C     -1.367130  3.442006 -3.240782
H      0.602809  3.619962 -4.138525
H     -0.414521  2.390110 -4.875193
C     -3.508874  2.718298 -2.581356
H     -1.069871  4.066375 -2.386585
H     -1.876449  4.138603 -3.934137
C     -4.661150  1.821591 -2.529067
H     -4.607503  1.274479 -3.269940
H     -4.725022  1.253446 -1.750766
H     -5.567467  2.209939 -2.514074
H     -3.780326  3.705577 -2.923593
C     -0.162837 -2.729500 -1.845529
H      0.051204 -2.891644 -2.879180
H      0.783820 -2.747178 -1.347809
H     -0.764004 -3.548966 -1.479340
C     -1.123956 -1.215873 -0.175486
H     -1.702352 -0.341374 -0.006030
H     -1.655383 -2.024418  0.295481
H     -0.183823 -1.070454  0.329709
98
OOF_MEP_guess_image_4
H      1.007337  4.251263 -1.483273
C      1.651685  4.213909 -0.629326
C      1.122381  3.827491  0.585917
C      2.976235  4.563749 -0.743312
N     -0.231209  3.435103  0.555730
C      1.897498  3.856953  1.726967
C      3.786086  4.512286  0.362153
H      3.381708  4.862887 -1.684815
C     -0.720633  2.133139  0.790746
C     -1.298154  4.255791  0.142893
C      1.419517  3.591751  3.114270
C      3.249242  4.162103  1.565092
H      4.836994  4.750714  0.283588
C     -2.142285  2.151445  0.643000
O      0.018022  1.189919  1.025986
C     -2.552894  3.423919  0.173202
O     -1.174871  5.381409 -0.188460
C      1.749758  2.159021  3.436181
C     -0.073895  3.872971  3.334571
C      2.155247  4.484709  4.080401
H      3.911424  4.127750  2.412155
H     -2.772630  1.331880  0.852550
H     -3.432354  3.792859  0.429941
H      2.788159  1.904517  3.192342
H      1.584285  1.957824  4.467731
H      1.128961  1.489402  2.884341
H     -0.387033  4.781471  2.848602
H     -0.313528  3.980429  4.377736
H     -0.693632  3.077085  2.977838
H      1.725807  4.413016  5.061686
H      2.079207  5.507369  3.781721
H      3.210842  4.220363  4.159493
C      6.551243  3.397024 -1.684149
C      6.049258  2.410989 -0.855162
C      6.065744  3.544692 -2.963436
H      7.326909  4.050103 -1.329589
C      5.051416  1.574595 -1.302687
H      6.451493  2.296312  0.138376
C      5.083932  2.694999 -3.418931
H      6.455508  4.315906 -3.607360
C      4.465683  0.503519 -0.437624
C      4.582365  1.709301 -2.594499
H      4.712475  2.800403 -4.421344
N      4.929656  0.557146  0.891371
C      2.961621  0.625027 -0.411806
H      4.726079 -0.459736 -0.879633
H      3.821006  1.041543 -2.959691
C      5.083650 -0.614401  1.532262
H      4.658320  1.341299  1.409165
O      2.513404  1.149836  0.672683
O      2.296450  0.284044 -1.324937
O      5.184836 -0.375788  2.802678
O      5.164017 -1.650787  1.018852
H      1.419063  1.216999  0.814510
C      5.359928 -1.443695  3.678761
C      5.384130 -0.732185  4.955650
C      6.664640 -2.055422  3.376973
C      4.182215 -2.397011  3.601784
H      4.462506 -0.240236  5.126354
H      5.518317 -1.405327  5.751210
H      6.185531  0.009184  4.967781
H      7.474695 -1.323768  3.308431
H      6.908655 -2.766482  4.109111
H      6.635512 -2.557908  2.453212
H      3.249426 -1.902588  3.677151
H      4.191343 -3.127918  4.365253
H      4.176228 -2.910450  2.684734
C     -0.930682 -1.461233 -1.758535
N     -0.063659 -0.419782 -2.285729
H     -1.910111 -1.423162 -2.241107
C     -0.509877  0.804397 -2.586545
H      0.936219 -0.517884 -2.074590
C      0.544232  1.783214 -3.013373
C     -1.830640  1.208187 -2.457883
C     -0.055265  2.871102 -3.894777
H      1.007885  2.223854 -2.100504
H      1.387102  1.280897 -3.534897
C     -2.195587  2.482029 -2.698806
H     -2.565821  0.510513 -2.066828
C     -1.260697  3.508471 -3.211160
H      0.703982  3.635619 -4.128069
H     -0.356257  2.444713 -4.866820
C     -3.369971  2.892675 -2.334614
H     -0.930508  4.157827 -2.386016
H     -1.783714  4.191949 -3.908687
C     -4.576458  2.059115 -2.346871
H     -4.604521  1.640522 -3.167430
H     -4.631070  1.376165 -1.666439
H     -5.452035  2.490052 -2.203891
H     -3.594103  3.906651 -2.648554
C     -0.250430 -2.735911 -2.083982
H     -0.060116 -2.831494 -3.130277
H      0.703795 -2.821320 -1.607162
H     -0.871910 -3.560403 -1.764804
C     -1.135415 -1.318851 -0.291022
H     -1.682681 -0.440558 -0.046239
H     -1.685073 -2.142606  0.130273
H     -0.184874 -1.236106  0.209771
98
OOF_MEP_guess_image_5
H      1.078600  4.249579 -1.461436
C      1.703540  4.157383 -0.593836
C      1.141803  3.706785  0.589773
C      3.033946  4.504799 -0.658915
N     -0.215832  3.330295  0.504449
C      1.893051  3.667596  1.752027
C      3.818213  4.389020  0.464334
H      3.462702  4.853192 -1.576456
C     -0.736015  2.019232  0.674841
C     -1.260721  4.188558  0.121992
C      1.382378  3.324689  3.116049
C      3.250567  3.975665  1.637769
H      4.872003  4.628808  0.423711
C     -2.137652  2.063960  0.522036
O      0.000184  1.048776  0.856299
C     -2.537981  3.376234  0.082609
O     -1.115145  5.331760 -0.153465
C      1.683897  1.864642  3.357804
C     -0.111543  3.615448  3.319838
C      2.112319  4.148011  4.156754
H      3.893192  3.893532  2.500146
H     -2.793527  1.256999  0.696340
H     -3.386947  3.765369  0.471879
H      2.725430  1.612160  3.124423
H      1.487331  1.599519  4.374169
H      1.067638  1.237021  2.744088
H     -0.401242  4.556107  2.875620
H     -0.372816  3.667143  4.365144
H     -0.736185  2.846809  2.902920
H      1.660441  4.019611  5.126000
H      2.058466  5.192794  3.920421
H      3.162321  3.862479  4.242816
C      6.484321  3.392433 -1.902136
C      6.017053  2.418741 -1.036095
C      5.987732  3.479950 -3.185670
H      7.241223  4.083587 -1.573217
C      5.041986  1.534028 -1.449759
H      6.428017  2.351159 -0.039136
C      5.032105  2.580114 -3.608351
H      6.349101  4.242604 -3.858218
C      4.493384  0.478826 -0.537766
C      4.565982  1.605742 -2.746979
H      4.653547  2.637210 -4.614198
N      4.928766  0.641274  0.802925
C      2.977661  0.521458 -0.550829
H      4.816146 -0.499798 -0.916085
H      3.828445  0.896109 -3.088974
C      5.088504 -0.484749  1.535763
H      4.604524  1.453621  1.260779
O      2.479912  1.059184  0.500681
O      2.357065  0.106648 -1.476422
O      5.129725 -0.149894  2.798294
O      5.222393 -1.559723  1.099145
H      1.364759  1.092429  0.639500
C      5.286433 -1.151556  3.765112
C      5.232890 -0.342025  4.995978
C      6.621215 -1.763285  3.571926
C      4.132241 -2.135837  3.699844
H      4.289966  0.146131  5.085139
H      5.344467 -0.955025  5.850858
H      6.017543  0.418121  4.993254
H      7.419430 -1.019502  3.490280
H      6.845784 -2.418099  4.370426
H      6.647549 -2.335259  2.679429
H      3.183210 -1.651915  3.693422
H      4.121451 -2.812063  4.520066
H      4.181198 -2.718539  2.816474
C     -0.970970 -1.465020 -1.889716
N     -0.071559 -0.409978 -2.345828
H     -1.956808 -1.355358 -2.359065
C     -0.473030  0.827607 -2.616530
H      0.934114 -0.557748 -2.152476
C      0.602669  1.792132 -3.020634
C     -1.787995  1.283472 -2.452937
C      0.024663  2.906442 -3.884281
H      1.071922  2.208472 -2.096811
H      1.441492  1.285237 -3.545188
C     -2.091499  2.580653 -2.611257
H     -2.536866  0.598640 -2.060689
C     -1.154264  3.574935 -3.181538
H      0.805156  3.651275 -4.117613
H     -0.297993  2.499317 -4.858448
C     -3.231069  3.067053 -2.087872
H     -0.791144  4.249278 -2.385446
H     -1.690978  4.245295 -3.883238
C     -4.491767  2.296638 -2.164675
H     -4.601539  2.006564 -3.064921
H     -4.537117  1.498883 -1.582111
H     -5.336603  2.770165 -1.893709
H     -3.407881  4.107724 -2.373515
C     -0.338023 -2.742323 -2.322435
H     -0.171436 -2.771345 -3.381374
H      0.623769 -2.895462 -1.866514
H     -0.979816 -3.571839 -2.050269
C     -1.146874 -1.421829 -0.406559
H     -1.663011 -0.539741 -0.086447
H     -1.714763 -2.260793 -0.034934
H     -0.185925 -1.401757  0.089832
98
OOF_MEP_guess_image_6
H      1.149864  4.247895 -1.439599
C      1.755396  4.100858 -0.558347
C      1.161224  3.586080  0.593629
C      3.091656  4.445848 -0.574517
N     -0.200455  3.225487  0.453169
C      1.888604  3.478240  1.777087
C      3.850340  4.265753  0.566515
H      3.543697  4.843497 -1.468098
C     -0.751397  1.905326  0.558936
C     -1.223288  4.121326  0.101092
C      1.345238  3.057627  3.117829
C      3.251891  3.789226  1.710446
H      4.907013  4.506901  0.563834
C     -2.133020  1.976474  0.401072
O     -0.017653  0.907633  0.686611
C     -2.523068  3.328550 -0.007985
O     -1.055420  5.282112 -0.118469
C      1.618036  1.570264  3.279427
C     -0.149192  3.357925  3.305106
C      2.069391  3.811314  4.233108
H      3.874961  3.659315  2.588138
H     -2.814424  1.182118  0.540130
H     -3.341540  3.737879  0.513817
H      2.662701  1.319804  3.056504
H      1.390377  1.241214  4.280607
H      1.006316  0.984641  2.603835
H     -0.415450  4.330742  2.902639
H     -0.432103  3.353856  4.352551
H     -0.778737  2.616533  2.828002
H      1.595075  3.626206  5.190315
H      2.037726  4.878220  4.059121
H      3.113801  3.504596  4.326139
C      6.417399  3.387842 -2.120123
C      5.984847  2.426494 -1.217027
C      5.909720  3.415209 -3.407903
H      7.155537  4.117071 -1.816846
C      5.032556  1.493460 -1.596831
H      6.404541  2.406006 -0.216647
C      4.980277  2.465229 -3.797772
H      6.242694  4.169302 -4.109075
C      4.521085  0.454133 -0.637909
C      4.549598  1.502183 -2.899460
H      4.594618  2.474018 -4.807052
N      4.927876  0.725402  0.714479
C      2.993702  0.417890 -0.689852
H      4.906212 -0.539860 -0.952537
H      3.835885  0.750675 -3.218257
C      5.093358 -0.355096  1.539263
H      4.550727  1.565942  1.112394
O      2.446420  0.968532  0.328678
O      2.417680 -0.070749 -1.627906
O      5.074615  0.075999  2.793911
O      5.280770 -1.468660  1.179439
H      1.310456  0.967859  0.464490
C      5.212938 -0.859417  3.851464
C      5.081649  0.048135  5.036306
C      6.577790 -1.471147  3.766880
C      4.082267 -1.874664  3.797904
H      4.117426  0.532499  5.043925
H      5.170617 -0.504723  5.950506
H      5.849554  0.827058  5.018727
H      7.364165 -0.715237  3.672129
H      6.782912 -2.069717  4.631740
H      6.659585 -2.112610  2.905645
H      3.116995 -1.401242  3.709693
H      4.051560 -2.496209  4.674878
H      4.186168 -2.526629  2.948214
C     -1.011259 -1.468807 -2.020897
N     -0.079459 -0.400174 -2.405926
H     -2.003505 -1.287553 -2.477024
C     -0.436184  0.850817 -2.646516
H      0.932010 -0.597612 -2.230362
C      0.661107  1.801050 -3.027895
C     -1.745351  1.358757 -2.447991
C      0.104590  2.941782 -3.873786
H      1.135959  2.193090 -2.093119
H      1.495883  1.289578 -3.555478
C     -1.987411  2.679278 -2.523708
H     -2.507910  0.686766 -2.054550
C     -1.047832  3.641400 -3.151917
H      0.906329  3.666932 -4.107156
H     -0.239728  2.553921 -4.850076
C     -3.092167  3.241431 -1.841130
H     -0.651780  4.340729 -2.384876
H     -1.598242  4.298641 -3.857788
C     -4.407075  2.534161 -1.982480
H     -4.598558  2.372607 -2.962412
H     -4.443165  1.621602 -1.497784
H     -5.221172  3.050277 -1.583527
H     -3.221659  4.308797 -2.098477
C     -0.425616 -2.748735 -2.560888
H     -0.282756 -2.711196 -3.632472
H      0.543743 -2.969604 -2.125866
H     -1.087721 -3.583275 -2.335733
C     -1.158334 -1.524808 -0.522095
H     -1.643341 -0.638924 -0.126656
H     -1.744454 -2.378981 -0.200142
H     -0.186977 -1.567409 -0.030107
98
OOF_MEP_guess_image_7
H      1.221127  4.246211 -1.417762
C      1.807251  4.044332 -0.522857
C      1.180646  3.465374  0.597485
C      3.149367  4.386898 -0.490120
N     -0.185078  3.120679  0.401888
C      1.884157  3.288883  1.802147
C      3.882467  4.142487  0.668696
H      3.624691  4.833802 -1.359739
C     -0.766779  1.791419  0.443031
C     -1.185855  4.054093  0.080191
C      1.308099  2.790565  3.119608
C      3.253216  3.602788  1.783123
H      4.942022  4.384995  0.703957
C     -2.128387  1.888989  0.280108
O     -0.035491  0.766490  0.516924
C     -2.508155  3.280865 -0.098578
O     -0.995694  5.232463 -0.083474
C      1.552175  1.275885  3.201050
C     -0.186840  3.100402  3.290373
C      2.026463  3.474616  4.309461
H      3.856729  3.425097  2.676129
H     -2.835321  1.107237  0.383920
H     -3.296133  3.710389  0.555755
H      2.599972  1.027447  2.988585
H      1.293423  0.882909  4.187045
H      0.944993  0.732260  2.463582
H     -0.429659  4.105378  2.929657
H     -0.491391  3.040570  4.339959
H     -0.821290  2.386257  2.753084
H      1.529709  3.232801  5.254629
H      2.016985  4.563645  4.197821
H      3.065280  3.146712  4.409462
C      6.350477  3.383251 -2.338110
C      5.952642  2.434246 -1.397960
C      5.831708  3.350467 -3.630137
H      7.069851  4.150555 -2.060474
C      5.023126  1.452893 -1.743903
H      6.381065  2.460853 -0.394159
C      4.928450  2.350344 -3.987192
H      6.136287  4.096000 -4.359933
C      4.548786  0.429440 -0.738051
C      4.533215  1.398624 -3.051940
H      4.535690  2.310825 -4.999906
N      4.926986  0.809530  0.626033
C      3.009742  0.314321 -0.828875
H      4.996279 -0.579922 -0.988989
H      3.843324  0.605241 -3.347540
C      5.098212 -0.225444  1.542764
H      4.496931  1.678264  0.964008
O      2.412928  0.877880  0.156676
O      2.478295 -0.248145 -1.779391
O      5.019504  0.301893  2.789527
O      5.339146 -1.377596  1.259732
H      1.256152  0.843289  0.289480
C      5.139443 -0.567278  3.937815
C      4.930409  0.438295  5.076634
C      6.534365 -1.179010  3.961833
C      4.032293 -1.613490  3.895964
H      3.944886  0.918866  5.002710
H      4.996767 -0.054421  6.050154
H      5.681566  1.235995  5.044200
H      7.308900 -0.410971  3.853978
H      6.720041 -1.721334  4.893055
H      6.671622 -1.889961  3.131862
H      3.050779 -1.150569  3.725964
H      3.981668 -2.180354  4.829691
H      4.191138 -2.334718  3.079954
C     -1.051547 -1.472594 -2.152078
N     -0.087359 -0.390370 -2.466025
H     -2.050202 -1.219749 -2.594982
C     -0.399337  0.874027 -2.676501
H      0.929905 -0.637476 -2.308248
C      0.719544  1.809968 -3.035156
C     -1.702706  1.434042 -2.443045
C      0.184518  2.977122 -3.863290
H      1.199996  2.177708 -2.089426
H      1.550273  1.293918 -3.565769
C     -1.883323  2.777902 -2.436159
H     -2.478955  0.774893 -2.048411
C     -0.941399  3.707864 -3.122295
H      1.007503  3.682588 -4.096700
H     -0.181464  2.608525 -4.841704
C     -2.953265  3.415809 -1.594388
H     -0.512416  4.432180 -2.384306
H     -1.505506  4.351987 -3.832339
C     -4.322384  2.771684 -1.800284
H     -4.595576  2.738649 -2.859903
H     -4.349212  1.744320 -1.413456
H     -5.105740  3.330390 -1.273345
H     -3.035437  4.509870 -1.823438
C     -0.513209 -2.755147 -2.799341
H     -0.394076 -2.651047 -3.883569
H      0.463717 -3.043746 -2.385218
H     -1.195627 -3.594711 -2.621198
C     -1.169793 -1.627786 -0.637632
H     -1.623671 -0.738107 -0.166864
H     -1.774144 -2.497168 -0.365349
H     -0.188028 -1.733060 -0.150046
