68
TEST_MEP_image_0
C      0.591265 -1.224738 -0.636854
C      1.667330 -1.099615 -1.457430
H     -0.455618 -1.295964 -0.884945
H      1.701653 -0.841014 -2.496282
C      2.906774 -1.353402 -0.688456
O      4.065101 -1.226970 -1.029309
C      1.079989 -1.675393  0.723863
O      0.484308 -1.914585  1.733083
C      3.371738 -2.254631  1.626877
C      4.122528 -3.439133  1.540259
C      3.443236 -1.429002  2.761389
C      5.061241 -3.660046  2.561190
C      4.341116 -1.709821  3.779408
H      2.780055 -0.565007  2.840699
C      5.177386 -2.818158  3.659890
H      5.730220 -4.519520  2.496619
H      4.396296 -1.068447  4.655922
H      5.914146 -3.031283  4.431094
C      4.016277 -4.495069  0.449949
C      5.110752 -4.221178 -0.593328
H      4.914690 -3.302227 -1.158353
H      6.092146 -4.093974 -0.120377
H      5.185255 -5.039232 -1.315475
C      4.243389 -5.899750  1.057945
H      3.586207 -6.065474  1.918232
H      4.033312 -6.683739  0.322412
H      5.277478 -6.048002  1.382443
C      2.638553 -4.544784 -0.232205
H      1.830071 -4.426009  0.497759
H      2.528397 -3.778297 -1.003943
H      2.480878 -5.504338 -0.738131
N      2.501714 -1.810961  0.592522
C      6.959166 -0.407327  0.654534
O      6.699088  0.715604  0.282350
H      7.826808 -0.700908  1.246966
O      6.207366 -1.462729  0.397359
H      5.334965 -1.318179 -0.151214
C      1.435262  1.551766  1.755990
C      1.128981  1.356298  0.299444
C      2.158283  1.574390 -0.665901
C      3.483591  1.688833 -0.313189
C      3.883316  1.641145  1.141574
C      2.774314  2.257145  1.996295
C     -0.088805  0.883809 -0.098397
C     -1.220226  0.656421  0.846520
N      4.521840  1.836611 -1.177455
C      4.374701  1.899492 -2.641042
C      4.908647  3.262118 -3.115257
C      5.163443  0.754979 -3.292446
H      0.620483  2.138423  2.231784
H      1.415725  0.567040  2.272623
H      1.854295  1.632601 -1.704531
H      4.846045  2.166076  1.320991
H      4.076567  0.586477  1.433117
H      2.675141  3.333788  1.750393
H      3.045691  2.210745  3.066890
H     -0.368025  0.917230 -1.149478
H     -2.075765  0.172206  0.360802
H     -0.935606  0.020243  1.699252
H     -1.584046  1.607434  1.262049
H      5.467123  1.638741 -0.833566
H      3.291542  1.809726 -2.920303
H      4.811194  3.365947 -4.199627
H      4.357609  4.085088 -2.644444
H      5.966193  3.391156 -2.858697
H      6.233856  0.814939 -3.066505
H      5.051999  0.767161 -4.380154
H      4.812366 -0.223382 -2.931282
68
TEST_MEP_image_1
C      0.596712 -1.450524 -0.700651
C      1.649303 -1.220674 -1.501905
H     -0.459423 -1.419902 -0.906219
H      1.683703 -0.928377 -2.535075
C      2.916817 -1.402795 -0.711863
O      4.059182 -1.248862 -1.065349
C      1.088156 -1.794718  0.685228
O      0.491777 -2.013643  1.696764
C      3.395218 -2.252073  1.611349
C      4.135640 -3.442119  1.526574
C      3.476363 -1.416332  2.736203
C      5.077025 -3.663606  2.544199
C      4.373709 -1.699952  3.754066
H      2.822346 -0.543725  2.806210
C      5.201555 -2.815112  3.637533
H      5.739511 -4.528017  2.483288
H      4.433704 -1.056097  4.628814
H      5.939794 -3.028762  4.407891
C      4.007706 -4.497954  0.438919
C      5.083284 -4.227362 -0.624189
H      4.881668 -3.310597 -1.189513
H      6.073400 -4.101759 -0.168636
H      5.144728 -5.046903 -1.346161
C      4.238386 -5.901359  1.046281
H      3.591532 -6.061034  1.916024
H      4.014079 -6.687249  0.316689
H      5.276167 -6.052647  1.356901
C      2.616897 -4.550478 -0.219087
H      1.821517 -4.430651  0.525423
H      2.491785 -3.795641 -0.998502
H      2.450595 -5.514607 -0.714492
N      2.518907 -1.817237  0.579334
C      7.031538 -0.429418  0.727439
O      6.761282  0.697078  0.389409
H      7.888375 -0.750997  1.319123
O      6.286820 -1.487377  0.416088
H      5.445002 -1.324314 -0.114489
C      1.421196  1.595964  1.775405
C      1.085055  1.464472  0.316351
C      2.141638  1.629632 -0.652623
C      3.457457  1.719542 -0.297064
C      3.866790  1.687288  1.156245
C      2.760037  2.301987  2.014956
C     -0.160912  1.119067 -0.075878
C     -1.270531  0.781672  0.857253
N      4.513738  1.845915 -1.161471
C      4.378382  1.865817 -2.624448
C      4.841056  3.244292 -3.131105
C      5.236617  0.754576 -3.249998
H      0.614656  2.153935  2.296053
H      1.425001  0.587050  2.241019
H      1.837900  1.677870 -1.690343
H      4.823836  2.226401  1.321671
H      4.073489  0.639419  1.456261
H      2.658458  3.378186  1.767182
H      3.033047  2.254951  3.084726
H     -0.420301  1.085628 -1.128225
H     -2.096618  0.273036  0.344703
H     -0.938533  0.108715  1.664363
H     -1.687205  1.679540  1.332592
H      5.446314  1.642709 -0.806297
H      3.305580  1.709124 -2.910910
H      4.739063  3.319441 -4.216948
H      4.246860  4.045456 -2.674361
H      5.889190  3.434576 -2.875102
H      6.299138  0.877049 -3.013478
H      5.137798  0.747970 -4.339226
H      4.935752 -0.235334 -2.880603
68
TEST_MEP_image_2
C      0.596698 -1.406437 -0.687271
C      1.643301 -1.185232 -1.499619
H     -0.461024 -1.379102 -0.885101
H      1.668472 -0.899943 -2.535179
C      2.915615 -1.371057 -0.720992
O      4.056577 -1.223455 -1.083175
C      1.098788 -1.746541  0.695732
O      0.511956 -1.952380  1.715878
C      3.411100 -2.227993  1.596684
C      4.135926 -3.427542  1.503963
C      3.517179 -1.392495  2.719560
C      5.088806 -3.658369  2.508386
C      4.425657 -1.685184  3.725108
H      2.873359 -0.512799  2.798329
C      5.238601 -2.810004  3.598677
H      5.740083 -4.530390  2.439495
H      4.505422 -1.040971  4.597767
H      5.984658 -3.031614  4.358592
C      3.977763 -4.484128  0.420679
C      5.028495 -4.221021 -0.668838
H      4.817040 -3.305720 -1.232588
H      6.029803 -4.098334 -0.237305
H      5.069300 -5.043381 -1.389074
C      4.216841 -5.888808  1.021914
H      3.591663 -6.046056  1.907715
H      3.970308 -6.673140  0.298018
H      5.261666 -6.045083  1.305599
C      2.570136 -4.528177 -0.201348
H      1.795188 -4.403917  0.563870
H      2.429227 -3.770773 -0.975575
H      2.385560 -5.490396 -0.693593
N      2.527756 -1.784044  0.574458
C      7.009194 -0.452312  0.764441
O      6.729969  0.686728  0.477809
H      7.862159 -0.790895  1.352390
O      6.282453 -1.501982  0.391181
H      5.441389 -1.321786 -0.136344
C      1.411126  1.607214  1.782044
C      1.092102  1.466024  0.320631
C      2.158559  1.630914 -0.636278
C      3.470197  1.729564 -0.266505
C      3.863591  1.743574  1.191502
C      2.732151  2.343068  2.029066
C     -0.146594  1.108176 -0.085737
C     -1.266122  0.771078  0.835320
N      4.533770  1.822095 -1.125865
C      4.404422  1.788558 -2.590005
C      4.733878  3.189889 -3.136006
C      5.366275  0.744815 -3.179745
H      0.588058  2.149897  2.291955
H      1.430953  0.600891  2.252458
H      1.867683  1.670188 -1.678700
H      4.803129  2.314508  1.353008
H      4.100606  0.709638  1.517068
H      2.610647  3.413956  1.768405
H      2.992847  2.312791  3.102389
H     -0.391750  1.070247 -1.141866
H     -2.084503  0.256953  0.316212
H     -0.943343  0.107733  1.654622
H     -1.690269  1.673250  1.294711
H      5.464319  1.637702 -0.756506
H      3.352941  1.518106 -2.873910
H      4.625251  3.225058 -4.222549
H      4.066395  3.943188 -2.699908
H      5.759164  3.484791 -2.887376
H      6.411267  0.968306 -2.940450
H      5.276850  0.701842 -4.268881
H      5.150250 -0.259903 -2.790547
68
TEST_MEP_image_3
C      0.568779 -1.098052 -0.587114
C      1.638144 -1.040912 -1.470719
H     -0.456459 -1.333011 -0.836753
H      1.604441 -0.854098 -2.519761
C      2.876439 -1.270684 -0.764197
O      4.037753 -1.156531 -1.112369
C      1.121097 -1.550511  0.754710
O      0.559287 -1.767286  1.793627
C      3.421317 -2.166729  1.560905
C      4.120154 -3.382401  1.456395
C      3.576553 -1.341065  2.687567
C      5.095328 -3.632730  2.434545
C      4.505474 -1.651102  3.668879
H      2.947481 -0.456276  2.789919
C      5.294591 -2.789393  3.520636
H      5.725482 -4.519388  2.348938
H      4.618425 -1.011104  4.540265
H      6.055899 -3.028082  4.259161
C      3.913134 -4.443973  0.386419
C      4.923210 -4.190926 -0.743177
H      4.693220 -3.271059 -1.294979
H      5.940747 -4.077382 -0.350560
H      4.926864 -5.011121 -1.466271
C      4.170281 -5.850343  0.980208
H      3.584429 -6.001783  1.893095
H      3.887502 -6.633926  0.269395
H      5.225794 -6.011767  1.217749
C      2.479801 -4.471681 -0.169073
H      1.743361 -4.343464  0.632837
H      2.308643 -3.693291 -0.919344
H      2.262323 -5.423081 -0.666208
N      2.523291 -1.691081  0.568769
C      6.921516 -0.496216  0.811887
O      6.610633  0.658203  0.611780
H      7.781905 -0.835186  1.390129
O      6.244539 -1.532225  0.349600
H      5.380816 -1.344601 -0.177606
C      1.411371  1.603361  1.764973
C      1.172309  1.387301  0.302252
C      2.207065  1.620818 -0.614904
C      3.535059  1.753147 -0.210493
C      3.873622  1.846246  1.253358
C      2.687683  2.404940  2.040211
C     -0.033193  0.844310 -0.143920
C     -1.195557  0.654813  0.776507
N      4.587415  1.761391 -1.048201
C      4.462940  1.641590 -2.515623
C      4.533467  3.049438 -3.123944
C      5.591706  0.752351 -3.045649
H      0.539943  2.127895  2.213199
H      1.444942  0.619987  2.288289
H      1.959338  1.619756 -1.672828
H      4.780355  2.464993  1.425970
H      4.158462  0.833158  1.622216
H      2.524853  3.466322  1.764444
H      2.915881  2.402217  3.122896
H     -0.303262  0.987592 -1.192623
H     -2.036869  0.161603  0.273974
H     -0.940322  0.032797  1.650177
H     -1.569305  1.614103  1.158543
H      5.527706  1.627143 -0.661841
H      3.476358  1.162006 -2.768248
H      4.423485  3.009644 -4.212245
H      3.740598  3.695829 -2.728031
H      5.490612  3.535287 -2.902721
H      6.583524  1.144831 -2.801456
H      5.527883  0.650784 -4.134223
H      5.521070 -0.263861 -2.623425
68
TEST_MEP_image_4
C      0.538024 -0.912061 -0.471431
C      1.699203 -0.934041 -1.406896
H     -0.320955 -1.519509 -0.825869
H      1.620628 -0.687516 -2.431504
C      2.855361 -1.295191 -0.747952
O      4.055830 -1.201842 -1.070098
C      1.123884 -1.528216  0.812226
O      0.559689 -1.767279  1.851601
C      3.387694 -2.209635  1.590650
C      4.117468 -3.406832  1.491457
C      3.507387 -1.385606  2.725664
C      5.080751 -3.638910  2.486657
C      4.426275 -1.677510  3.721057
H      2.851706 -0.522875  2.828988
C      5.241534 -2.798427  3.581344
H      5.733016 -4.510375  2.406532
H      4.509800 -1.038922  4.596389
H      5.992641 -3.024108  4.333592
C      3.956335 -4.467216  0.411964
C      5.007780 -4.205277 -0.677477
H      4.784671 -3.282494 -1.232660
H      6.007698 -4.079018 -0.248030
H      5.043046 -5.021463 -1.403327
C      4.198804 -5.873261  1.015158
H      3.577569 -6.028991  1.903264
H      3.949365 -6.656423  0.291502
H      5.244950 -6.026977  1.293834
C      2.549752 -4.502412 -0.206105
H      1.774859 -4.384025  0.559316
H      2.406930 -3.710598 -0.951296
H      2.364256 -5.447328 -0.726553
N      2.493591 -1.739791  0.594977
C      6.837800 -0.442314  0.682265
O      6.556034  0.716681  0.409782
H      7.728193 -0.722894  1.250885
O      6.127821 -1.478486  0.355085
H      5.193939 -1.344445 -0.207228
C      1.433726  1.559642  1.738682
C      1.234743  1.329465  0.282212
C      2.178614  1.678640 -0.631260
C      3.558020  1.791215 -0.247144
C      3.891494  1.783244  1.216971
C      2.723511  2.335553  2.034436
C      0.042538  0.554121 -0.196579
C     -1.141222  0.560451  0.763183
N      4.562097  1.764582 -1.104801
C      4.416241  1.751458 -2.582350
C      4.718587  3.163432 -3.098509
C      5.381188  0.716099 -3.158828
H      0.560540  2.105870  2.158816
H      1.427348  0.582046  2.283757
H      1.943497  1.642761 -1.697727
H      4.832873  2.331757  1.440224
H      4.125035  0.727284  1.519998
H      2.578328  3.411064  1.807910
H      2.960300  2.284023  3.115450
H     -0.297017  0.957497 -1.187143
H     -2.021437  0.092073  0.306648
H     -0.933765 -0.012937  1.681358
H     -1.427831  1.573899  1.056086
H      5.525349  1.557842 -0.745147
H      3.363165  1.458554 -2.856933
H      4.612600  3.206859 -4.188563
H      4.038561  3.909690 -2.672901
H      5.742173  3.477770 -2.860936
H      6.429263  0.931498 -2.925996
H      5.284492  0.652411 -4.247674
H      5.154210 -0.294361 -2.760370
68
TEST_MEP_image_5
C      0.543972 -0.892591 -0.477764
C      1.703234 -0.918173 -1.415099
H     -0.311219 -1.503221 -0.833656
H      1.610889 -0.697414 -2.444073
C      2.861780 -1.275519 -0.757193
O      4.061693 -1.188641 -1.082120
C      1.132821 -1.510113  0.804997
O      0.562889 -1.760311  1.837713
C      3.401537 -2.196109  1.577401
C      4.120041 -3.400526  1.475306
C      3.541356 -1.371039  2.708969
C      5.090096 -3.640653  2.461892
C      4.466214 -1.670335  3.696816
H      2.896112 -0.500714  2.815191
C      5.269425 -2.799120  3.552798
H      5.732552 -4.519343  2.379746
H      4.562215 -1.030410  4.569825
H      6.023777 -3.030132  4.299543
C      3.938845 -4.462455  0.400983
C      4.971063 -4.204101 -0.707058
H      4.739629 -3.281620 -1.259211
H      5.978660 -4.078565 -0.296059
H      4.992557 -5.021459 -1.431882
C      4.186752 -5.869919  0.998806
H      3.581302 -6.024280  1.897675
H      3.920628 -6.650881  0.278844
H      5.236790 -6.028926  1.258157
C      2.520507 -4.491285 -0.189655
H      1.761683 -4.364109  0.590584
H      2.368848 -3.701079 -0.935006
H      2.319004 -5.438118 -0.700671
N      2.503960 -1.715316  0.588960
C      6.835133 -0.457673  0.709169
O      6.557585  0.708183  0.459326
H      7.712632 -0.755539  1.289434
O      6.135676 -1.486947  0.339331
H      5.204649 -1.339181 -0.224316
C      1.421528  1.575901  1.745393
C      1.231322  1.346125  0.287697
C      2.183901  1.689793 -0.618137
C      3.560265  1.804258 -0.223678
C      3.883834  1.827364  1.242354
C      2.699918  2.370689  2.044526
C      0.042178  0.571674 -0.198847
C     -1.147238  0.576312  0.754464
N      4.570371  1.752264 -1.072815
C      4.431054  1.695170 -2.549485
C      4.637258  3.109346 -3.103132
C      5.468972  0.721425 -3.104961
H      0.540485  2.107920  2.169129
H      1.431341  0.596294  2.287153
H      1.955307  1.651325 -1.684983
H      4.812990  2.399661  1.460341
H      4.140356  0.783527  1.569837
H      2.543236  3.441944  1.802193
H      2.927844  2.336727  3.130050
H     -0.295796  0.986901 -1.183579
H     -2.022720  0.101586  0.296413
H     -0.946093 -0.000760  1.670374
H     -1.433632  1.591911  1.041280
H      5.528839  1.553364 -0.701757
H      3.403333  1.316632 -2.815712
H      4.526337  3.115784 -4.195399
H      3.912765  3.823560 -2.696555
H      5.638292  3.494296 -2.874503
H      6.497041  1.016383 -2.874880
H      5.376967  0.631436 -4.193619
H      5.314825 -0.295505 -2.693540
68
TEST_MEP_image_6
C      0.551006 -0.885301 -0.478095
C      1.707161 -0.910786 -1.419484
H     -0.306057 -1.501346 -0.827164
H      1.611920 -0.678958 -2.445765
C      2.866980 -1.265213 -0.764289
O      4.066070 -1.174272 -1.097136
C      1.146223 -1.492294  0.805249
O      0.584864 -1.733950  1.844977
C      3.416492 -2.183639  1.568595
C      4.123631 -3.394539  1.462781
C      3.567755 -1.357926  2.698073
C      5.099078 -3.639722  2.442294
C      4.497597 -1.662908  3.679443
H      2.927982 -0.483518  2.806687
C      5.291720 -2.797252  3.530142
H      5.734610 -4.522097  2.355999
H      4.603811 -1.022673  4.550317
H      6.049950 -3.031651  4.270562
C      3.922282 -4.455315  0.390666
C      4.938413 -4.200508 -0.732722
H      4.701693 -3.278799 -1.283379
H      5.951891 -4.076282 -0.336222
H      4.948119 -5.019062 -1.456071
C      4.174048 -5.863308  0.984269
H      3.581578 -6.016043  1.891924
H      3.895099 -6.643265  0.268561
H      5.227191 -6.025358  1.228226
C      2.494841 -4.478668 -0.178511
H      1.748489 -4.350153  0.613295
H      2.334123 -3.687739 -0.921056
H      2.282487 -5.424106 -0.687080
N      2.516170 -1.700251  0.584041
C      6.816588 -0.469546  0.725940
O      6.537570  0.700636  0.499360
H      7.689689 -0.775785  1.307297
O      6.125284 -1.492053  0.326614
H      5.192388 -1.334960 -0.241778
C      1.416115  1.586175  1.748158
C      1.235482  1.355316  0.290018
C      2.193339  1.699488 -0.610505
C      3.566065  1.817531 -0.204151
C      3.878175  1.865893  1.263810
C      2.681371  2.396793  2.053193
C      0.049975  0.580152 -0.203701
C     -1.145120  0.583210  0.741479
N      4.580947  1.739887 -1.046182
C      4.447431  1.648591 -2.522921
C      4.570779  3.061485 -3.104153
C      5.539133  0.724585 -3.061045
H      0.526824  2.105955  2.167662
H      1.436310  0.607405  2.288776
H      1.971648  1.666539 -1.679403
H      4.795339  2.457465  1.475932
H      4.154215  0.831886  1.604478
H      2.513950  3.463684  1.806139
H      2.902492  2.369438  3.138080
H     -0.282703  0.990657 -1.191899
H     -2.014865  0.100440  0.281367
H     -0.945888  0.010150  1.659649
H     -1.440641  1.597175  1.025487
H      5.536203  1.539376 -0.664932
H      3.444024  1.203215 -2.778597
H      4.458564  3.041074 -4.193405
H      3.808216  3.737371 -2.706391
H      5.547805  3.506384 -2.882202
H      6.548611  1.077643 -2.830851
H      5.455447  0.612837 -4.146978
H      5.436772 -0.292218 -2.634854
68
TEST_MEP_image_7
C      0.556042 -0.876370 -0.478017
C      1.708676 -0.899003 -1.425125
H     -0.301595 -1.493626 -0.820369
H      1.616447 -0.666393 -2.453333
C      2.870954 -1.252830 -0.773866
O      4.067758 -1.158597 -1.114227
C      1.157413 -1.478745  0.805819
O      0.605305 -1.710669  1.853146
C      3.429461 -2.170782  1.557935
C      4.125614 -3.387581  1.449857
C      3.593306 -1.345364  2.685839
C      5.106063 -3.637817  2.422871
C      4.527432 -1.655675  3.661750
H      2.961127 -0.466751  2.798415
C      5.313098 -2.795512  3.508448
H      5.735400 -4.524139  2.332490
H      4.645733 -1.016292  4.531993
H      6.076710 -3.035029  4.243492
C      3.906634 -4.447843  0.380829
C      4.907583 -4.197150 -0.757094
H      4.665213 -3.276526 -1.307116
H      5.926993 -4.074231 -0.374871
H      4.905364 -5.017076 -1.479346
C      4.162427 -5.856934  0.970625
H      3.581604 -6.008450  1.886281
H      3.870724 -6.636127  0.258708
H      5.218886 -6.022627  1.199083
C      2.470604 -4.466493 -0.166928
H      1.736871 -4.335754  0.636324
H      2.301666 -3.675112 -0.906927
H      2.247330 -5.410523 -0.673685
N      2.526288 -1.685142  0.576975
C      6.801512 -0.483547  0.743454
O      6.522411  0.691312  0.539450
H      7.670526 -0.794519  1.328531
O      6.117398 -1.496753  0.312770
H      5.186056 -1.330656 -0.258358
C      1.411480  1.595650  1.750778
C      1.238039  1.364322  0.291324
C      2.200157  1.710898 -0.603333
C      3.570878  1.828086 -0.186792
C      3.873944  1.902908  1.281386
C      2.665454  2.422724  2.060133
C      0.055355  0.586952 -0.208828
C     -1.144787  0.586951  0.730951
N      4.590693  1.725810 -1.019502
C      4.462717  1.602465 -2.494190
C      4.507605  3.009353 -3.101160
C      5.604436  0.730186 -3.015382
H      0.513651  2.103982  2.166693
H      1.439946  0.616940  2.292776
H      1.988308  1.678814 -1.673925
H      4.777797  2.515064  1.491876
H      4.164488  0.878624  1.638045
H      2.484772  3.486982  1.809409
H      2.877430  2.401137  3.147329
H     -0.268167  0.994653 -1.202276
H     -2.011521  0.103628  0.262808
H     -0.943533  0.023406  1.656888
H     -1.448249  1.600079  1.010060
H      5.544922  1.527902 -0.630193
H      3.484864  1.095522 -2.739967
H      4.396881  2.964605 -4.191709
H      3.705908  3.648579 -2.714608
H      5.460081  3.513144 -2.894752
H      6.593812  1.140916 -2.792263
H      5.532293  0.600336 -4.101430
H      5.551255 -0.284623 -2.575196
68
TEST_MEP_image_8
C      0.558747 -0.861087 -0.485080
C      1.710152 -0.891199 -1.432732
H     -0.300933 -1.475042 -0.827645
H      1.611546 -0.686325 -2.465194
C      2.874525 -1.242012 -0.782243
O      4.070845 -1.149073 -1.123632
C      1.162193 -1.465086  0.797430
O      0.605978 -1.709090  1.839524
C      3.439900 -2.159604  1.546187
C      4.127131 -3.382185  1.435727
C      3.622775 -1.333935  2.670821
C      5.114828 -3.639077  2.399733
C      4.563372 -1.650145  3.639201
H      3.001025 -0.448585  2.786834
C      5.338910 -2.796290  3.481665
H      5.736319 -4.531449  2.306054
H      4.694352 -1.010364  4.507875
H      6.107333 -3.040840  4.210528
C      3.890401 -4.443568  0.371843
C      4.872989 -4.195923 -0.782545
H      4.623064 -3.275466 -1.329478
H      5.898891 -4.074042 -0.417681
H      4.857647 -5.016750 -1.503696
C      4.151496 -5.854053  0.956365
H      3.585697 -6.004726  1.881540
H      3.844745 -6.631368  0.248480
H      5.211005 -6.024369  1.166740
C      2.444789 -4.456441 -0.149929
H      1.726943 -4.317847  0.666537
H      2.267613 -3.666506 -0.889533
H      2.206757 -5.401373 -0.647843
N      2.532870 -1.666181  0.571939
C      6.803883 -0.498354  0.769090
O      6.526842  0.679311  0.584668
H      7.658464 -0.826087  1.366779
O      6.132246 -1.503313  0.296340
H      5.206964 -1.327440 -0.271049
C      1.400928  1.611320  1.756165
C      1.235183  1.375046  0.296827
C      2.205218  1.715813 -0.593388
C      3.571241  1.840418 -0.167212
C      3.865090  1.940548  1.301642
C      2.644519  2.454057  2.067052
C      0.054321  0.601635 -0.211019
C     -1.150515  0.601476  0.723410
N      4.598414  1.725469 -0.990473
C      4.477261  1.563071 -2.461791
C      4.448468  2.952649 -3.106521
C      5.668757  0.750291 -2.965754
H      0.497278  2.108032  2.174587
H      1.442604  0.631656  2.294642
H      1.999942  1.672420 -1.664748
H      4.756818  2.572662  1.504950
H      4.172994  0.927675  1.677904
H      2.454909  3.514119  1.802974
H      2.848858  2.446027  3.156627
H     -0.267854  1.015174 -1.202172
H     -2.015594  0.118181  0.253264
H     -0.954589  0.037482  1.648930
H     -1.456273  1.614557  1.000909
H      5.548496  1.541940 -0.588422
H      3.529385  0.992088 -2.687022
H      4.341201  2.866873 -4.194549
H      3.617031  3.563985 -2.740623
H      5.375179  3.507087 -2.914733
H      6.629770  1.228277 -2.755102
H      5.598824  0.596301 -4.048208
H      5.680692 -0.256557 -2.508411
68
TEST_MEP_image_9
C      0.566451 -0.856268 -0.482393
C      1.712680 -0.882696 -1.435762
H     -0.291762 -1.476430 -0.815914
H      1.613421 -0.661163 -2.466770
C      2.878902 -1.230618 -0.789084
O      4.075122 -1.134986 -1.140252
C      1.176538 -1.450190  0.801857
O      0.631140 -1.677106  1.853867
C      3.454265 -2.147972  1.537397
C      4.130245 -3.375942  1.423335
C      3.647187 -1.321548  2.659566
C      5.122805 -3.637151  2.380836
C      4.591950 -1.642921  3.622042
H      3.030436 -0.433037  2.777944
C      5.359175 -2.794047  3.459845
H      5.738191 -4.532483  2.283450
H      4.732965 -1.003298  4.488725
H      6.131444 -3.042121  4.183281
C      3.874254 -4.435229  0.361816
C      4.841203 -4.191630 -0.806282
H      4.586413 -3.272242 -1.352496
H      5.872061 -4.071094 -0.455156
H      4.814457 -5.013879 -1.525551
C      4.138624 -5.846491  0.942402
H      3.584783 -5.995559  1.874963
H      3.820068 -6.622921  0.238904
H      5.200529 -6.019262  1.137941
C      2.421214 -4.443341 -0.139750
H      1.714904 -4.304972  0.686527
H      2.235232 -3.652352 -0.875982
H      2.174052 -5.386508 -0.636881
N      2.545634 -1.653066  0.566342
C      6.782281 -0.511221  0.782995
O      6.502441  0.670915  0.621951
H      7.635037 -0.842981  1.379983
O      6.119129 -1.506765  0.283939
H      5.191444 -1.322358 -0.288633
C      1.397760  1.619112  1.756391
C      1.239101  1.384233  0.295702
C      2.214412  1.726108 -0.588134
C      3.577119  1.851343 -0.149928
C      3.860622  1.977699  1.318284
C      2.628520  2.477306  2.072780
C      0.062698  0.606941 -0.216869
C     -1.146906  0.603692  0.710831
N      4.609227  1.714553 -0.963931
C      4.496306  1.522280 -2.432987
C      4.391332  2.896393 -3.100520
C      5.726891  0.759218 -2.921615
H      0.486463  2.104552  2.168476
H      1.447645  0.640948  2.297917
H      2.018252  1.686528 -1.661276
H      4.739804  2.628393  1.517713
H      4.184416  0.975449  1.707321
H      2.427367  3.534175  1.806891
H      2.825396  2.472651  3.162909
H     -0.250923  1.015685 -1.212952
H     -2.006255  0.114209  0.235867
H     -0.950600  0.046881  1.641608
H     -1.460229  1.616724  0.981748
H      5.557591  1.526632 -0.554591
H      3.578736  0.898567 -2.649123
H      4.285240  2.790727 -4.188298
H      3.525991  3.463395 -2.739578
H      5.284729  3.506171 -2.923258
H      6.664846  1.283066 -2.716883
H      5.671707  0.584989 -4.003617
H      5.779161 -0.238982 -2.448028
68
TEST_MEP_image_10
C      0.571031 -0.843950 -0.483985
C      1.715608 -0.876236 -1.441240
H     -0.287404 -1.465856 -0.815725
H      1.611911 -0.666335 -2.473622
C      2.883348 -1.223081 -0.796939
O      4.078278 -1.133501 -1.152205
C      1.185235 -1.435252  0.799119
O      0.640262 -1.661330  1.852286
C      3.466308 -2.137451  1.528281
C      4.133533 -3.370307  1.410520
C      3.675447 -1.311070  2.647354
C      5.133023 -3.637423  2.359004
C      4.626439 -1.638162  3.601966
H      3.066514 -0.417621  2.769471
C      5.385131 -2.794034  3.434378
H      5.741175 -4.537299  2.258212
H      4.778456 -0.998951  4.467040
H      6.162317 -3.045540  4.150874
C      3.858044 -4.428678  0.352964
C      4.806071 -4.188341 -0.831161
H      4.544237 -3.269352 -1.374710
H      5.842850 -4.068953 -0.497462
H      4.765636 -5.011438 -1.548671
C      4.126233 -5.841222  0.928161
H      3.586701 -5.989107  1.869331
H      3.793269 -6.615428  0.228942
H      5.190470 -6.018276  1.106584
C      2.396454 -4.430620 -0.124231
H      1.704878 -4.288806  0.714054
H      2.201575 -3.639067 -0.857603
H      2.137195 -5.372942 -0.616573
N      2.553720 -1.636276  0.562887
C      6.772136 -0.523918  0.804201
O      6.492315  0.659847  0.663947
H      7.615214 -0.868326  1.408294
O      6.122622 -1.511031  0.271151
H      5.196470 -1.320536 -0.303361
C      1.390887  1.631908  1.758810
C      1.238964  1.394910  0.297842
C      2.219021  1.731860 -0.580828
C      3.578197  1.862285 -0.131841
C      3.853342  2.013974  1.335137
C      2.611262  2.503950  2.078205
C      0.064891  0.617432 -0.221467
C     -1.149788  0.614172  0.700110
N      4.616980  1.713170 -0.934042
C      4.513321  1.486157 -2.398890
C      4.338960  2.837388 -3.100842
C      5.783671  0.779645 -2.875368
H      0.473280  2.106438  2.170830
H      1.451797  0.653229  2.298311
H      2.030992  1.684037 -1.655524
H      4.719966  2.683626  1.525222
H      4.195010  1.024424  1.739793
H      2.401073  3.556762  1.804267
H      2.801422  2.507567  3.169282
H     -0.245586  1.029161 -1.217675
H     -2.005183  0.119449  0.222785
H     -0.956492  0.058626  1.632371
H     -1.467818  1.626881  0.966785
H      5.562131  1.530591 -0.514582
H      3.627832  0.809612 -2.599462
H      4.239007  2.696749 -4.185614
H      3.446571  3.371346 -2.754246
H      5.202008  3.495311 -2.936580
H      6.691744  1.359308 -2.678813
H      5.735991  0.583772 -3.954644
H      5.891320 -0.205521 -2.384497
68
TEST_MEP_image_11
C      0.577930 -0.836547 -0.484048
C      1.718698 -0.868113 -1.445165
H     -0.279770 -1.463537 -0.808391
H      1.611837 -0.652473 -2.475862
C      2.887529 -1.214735 -0.803246
O      4.080734 -1.128836 -1.167271
C      1.196817 -1.418170  0.801761
O      0.658638 -1.636038  1.858795
C      3.479593 -2.125206  1.518963
C      4.135813 -3.363421  1.396863
C      3.701405 -1.299123  2.635638
C      5.141544 -3.636171  2.336888
C      4.658330 -1.631926  3.582240
H      3.099199 -0.401746  2.762377
C      5.408668 -2.792393  3.408444
H      5.742880 -4.540242  2.232111
H      4.821874 -0.993585  4.445990
H      6.191735 -3.047292  4.117500
C      3.840948 -4.420502  0.343139
C      4.770462 -4.183850 -0.856118
H      4.502546 -3.265211 -1.397124
H      5.812604 -4.066047 -0.539130
H      4.716605 -5.007471 -1.572203
C      4.113038 -5.834106  0.913549
H      3.587676 -5.980607  1.862904
H      3.766673 -6.606954  0.219310
H      5.179340 -6.014665  1.075383
C      2.371705 -4.416741 -0.110415
H      1.694478 -4.273948  0.739251
H      2.167636 -3.623781 -0.839635
H      2.100994 -5.357155 -0.600191
N      2.564335 -1.619576  0.559225
C      6.754023 -0.537099  0.822090
O      6.471165  0.649217  0.705089
H      7.592234 -0.888767  1.428689
O      6.115574 -1.513406  0.259112
H      5.189555 -1.317026 -0.319295
C      1.386570  1.641830  1.760624
C      1.243594  1.403548  0.298842
C      2.228256  1.739928 -0.573991
C      3.584645  1.876092 -0.116759
C      3.847978  2.051625  1.350313
C      2.594681  2.528981  2.083937
C      0.071852  0.626043 -0.226356
C     -1.148295  0.619954  0.687490
N      4.627140  1.706189 -0.908715
C      4.534665  1.449846 -2.370157
C      4.286452  2.775368 -3.096196
C      5.839430  0.797279 -2.828773
H      0.461529  2.105917  2.167889
H      1.456911  0.664414  2.301197
H      2.047899  1.689122 -1.649685
H      4.700759  2.739706  1.537099
H      4.204649  1.073340  1.770380
H      2.372964  3.578588  1.805890
H      2.777145  2.538038  3.176687
H     -0.231979  1.034446 -1.225828
H     -1.997962  0.119479  0.206159
H     -0.957872  0.068308  1.622503
H     -1.472814  1.631353  0.948259
H      5.567587  1.523326 -0.476621
H      3.684009  0.725211 -2.556929
H      4.189514  2.609250 -4.176495
H      3.366031  3.264848 -2.757811
H      5.110334  3.483559 -2.948401
H      6.718070  1.422224 -2.641559
H      5.806745  0.578083 -3.902898
H      5.991661 -0.172341 -2.320432
