98
Title Card Required
H          1.01880        3.49200       -1.79020
C          1.54480        3.97820       -0.98210
C          0.85430        4.17530        0.21110
C          2.86990        4.34280       -1.12460
N         -0.47720        3.65830        0.24120
C          1.47310        4.78210        1.31890
C          3.51410        4.91100       -0.03670
H          3.39800        4.16020       -2.05250
C         -0.81520        2.41790        0.81200
C         -1.62680        4.31070       -0.18490
C          0.83870        5.03250        2.70470
C          2.82260        5.12100        1.14570
H          4.56020        5.18490       -0.10470
C         -2.22800        2.27940        0.78440
O          0.04840        1.67170        1.30230
C         -2.75720        3.36220        0.10530
O         -1.67020        5.41260       -0.67660
C          1.20840        3.85290        3.62380
C         -0.69180        5.19750        2.68840
C          1.39990        6.33190        3.31980
H          3.36500        5.56200        1.97050
H         -2.75180        1.42520        1.18250
H         -3.74950        3.76920        0.23590
H          2.29420        3.75030        3.70770
H          0.80170        4.01900        4.62660
H          0.80550        2.91460        3.23790
H         -1.01040        5.91130        1.92490
H         -1.01190        5.58390        3.65950
H         -1.22210        4.25770        2.53780
H          0.87880        6.53750        4.25820
H          1.24580        7.18360        2.65150
H          2.46290        6.26810        3.55750
C          6.77600        3.31830       -0.69380
C          6.04650        2.31590       -0.06400
C          6.69160        3.48570       -2.07030
H          7.40940        3.97190       -0.10460
C          5.23100        1.47050       -0.80730
H          6.12320        2.19130        1.00960
C          5.88360        2.63510       -2.81840
H          7.25920        4.26880       -2.55990
C          4.36800        0.40440       -0.14720
C          5.15680        1.63260       -2.19050
H          5.82270        2.75030       -3.89480
N          4.81760        0.00230        1.16130
C          2.92830        0.91600       -0.11480
H          4.37200       -0.48300       -0.78170
H          4.53380        0.96070       -2.76950
C          5.03940       -1.31000        1.45740
H          4.61600        0.60800        1.94100
O          2.58460        1.40460        1.05540
O          2.20290        0.86530       -1.08390
O          5.22410       -1.43520        2.77720
O          5.07380       -2.20580        0.63910
H          1.61260        1.65650        1.07130
C          5.54220       -2.72390        3.39120
C          5.67800       -2.36400        4.86550
C          6.86130       -3.25550        2.83960
C          4.39040       -3.70200        3.18700
H          4.74220       -1.94320        5.24030
H          5.91620       -3.25820        5.44570
H          6.47500       -1.63120        5.00960
H          7.64580       -2.50210        2.94710
H          7.15770       -4.14190        3.40600
H          6.76780       -3.52480        1.78850
H          3.46490       -3.26700        3.57230
H          4.59580       -4.62230        3.73980
H          4.26480       -3.94640        2.13270
C         -0.39490       -1.60780       -1.63510
N          0.02680       -0.52270       -2.51020
H         -1.48920       -1.63490       -1.66540
C         -0.54280        0.66770       -2.72380
H          0.88720       -0.67240       -3.01000
C          0.23300        1.52970       -3.68610
C         -1.72750        1.10420       -2.15520
C         -0.63700        2.58890       -4.34850
H          1.05580        1.97940       -3.12000
H          0.69700        0.89080       -4.44320
C         -2.25340        2.38600       -2.44050
H         -2.28300        0.44120       -1.50210
C         -1.46770        3.33710       -3.31250
H         -0.01000        3.28690       -4.90770
H         -1.30640        2.10500       -5.06690
C         -3.44180        2.83480       -1.87140
H         -0.81590        3.96010       -2.68990
H         -2.15430        4.02830       -3.80470
C         -4.55130        1.91430       -1.43170
H         -5.04890        1.47720       -2.30470
H         -4.18930        1.09090       -0.81580
H         -5.31020        2.45580       -0.86130
H         -3.76120        3.82390       -2.19210
C          0.08470       -2.93220       -2.25770
H         -0.27100       -3.00240       -3.26440
H          1.15430       -2.96110       -2.25450
H         -0.29600       -3.75320       -1.68680
C         -0.00280       -1.36150       -0.16640
H         -0.80150       -0.85700        0.33620
H          0.18570       -2.29860        0.31450
H          0.87980       -0.75770       -0.12930