68
Structure 1 - REFINED - Rel. E. = 0.0 kcal/mol
C      0.575477 -1.156144 -0.602774
C      1.659434 -1.063264 -1.446540
H     -0.455382 -1.331501 -0.871655
H      1.664383 -0.826957 -2.488608
C      2.886972 -1.310806 -0.700991
O      4.052249 -1.190628 -1.034157
C      1.084574 -1.626616  0.746801
O      0.494394 -1.872751  1.760742
C      3.369746 -2.216022  1.629047
C      4.116814 -3.402833  1.535905
C      3.441509 -1.407280  2.776907
C      5.053025 -3.637475  2.556235
C      4.330444 -1.706139  3.797778
H      2.778527 -0.545791  2.868445
C      5.166231 -2.813240  3.668110
H      5.719846 -4.497735  2.483321
H      4.376540 -1.082107  4.686631
H      5.896980 -3.040160  4.440590
C      4.004274 -4.456238  0.444229
C      5.100275 -4.188090 -0.598538
H      4.907263 -3.265194 -1.159607
H      6.082794 -4.069048 -0.126602
H      5.167032 -5.003364 -1.324205
C      4.219662 -5.863687  1.052082
H      3.556861 -6.025114  1.909030
H      4.006938 -6.645259  0.315079
H      5.250887 -6.020039  1.381496
C      2.626736 -4.495500 -0.237512
H      1.818259 -4.389051  0.494521
H      2.514664 -3.713673 -0.994461
H      2.471810 -5.444971 -0.762006
N      2.498985 -1.757673  0.602628
C      6.937360 -0.413104  0.674655
O      6.676990  0.716489  0.317722
H      7.812138 -0.709682  1.253434
O      6.181979 -1.462769  0.418141
H      5.308856 -1.310954 -0.133274
C      1.446755  1.554290  1.752456
C      1.155275  1.346867  0.296748
C      2.165812  1.582825 -0.660636
C      3.503210  1.697142 -0.308982
C      3.897544  1.647881  1.145477
C      2.785894  2.256833  2.001177
C     -0.060768  0.824741 -0.106730
C     -1.195216  0.623159  0.843369
N      4.529054  1.824106 -1.176706
C      4.373383  1.891165 -2.642194
C      4.900497  3.255145 -3.115779
C      5.156051  0.746148 -3.294973
H      0.627290  2.147527  2.213146
H      1.415964  0.574732  2.281219
H      1.869727  1.623317 -1.703984
H      4.861468  2.168573  1.331925
H      4.091140  0.589454  1.432787
H      2.688750  3.336429  1.768051
H      3.055077  2.198588  3.072400
H     -0.358281  0.931761 -1.151010
H     -2.046258  0.119147  0.369048
H     -0.913220  0.011898  1.715100
H     -1.566846  1.582707  1.229128
H      5.481244  1.640873 -0.835922
H      3.288026  1.798671 -2.913886
H      4.802233  3.357591 -4.201166
H      4.346955  4.078399 -2.648513
H      5.958535  3.388533 -2.863609
H      6.228613  0.806132 -3.082314
H      5.029651  0.750348 -4.381631
H      4.807722 -0.232135 -2.924408
68
Structure 2 - REFINED - Rel. E. = 0.149 kcal/mol
C      0.394713 -0.788171 -0.276791
C      1.644670 -0.753678 -0.852331
H     -0.553054 -0.761010 -0.790444
H      1.906062 -0.429492 -1.834491
C      2.641615 -1.179998  0.113775
O      3.860292 -1.121122  0.108418
C      0.532460 -1.521447  1.050367
O     -0.308056 -1.895946  1.816432
C      2.541076 -2.159438  2.436323
C      3.403832 -3.263179  2.530597
C      2.247816 -1.365598  3.561123
C      4.070573 -3.432779  3.755295
C      2.877034 -1.604217  4.772460
H      1.515169 -0.562632  3.475277
C      3.820297 -2.626758  4.857949
H      4.808480 -4.230130  3.853850
H      2.640527 -0.997256  5.643167
H      4.349856 -2.803150  5.791201
C      3.686799 -4.290266  1.444876
C      5.048293 -3.958907  0.811391
H      5.044443 -2.953455  0.369115
H      5.855936 -3.984967  1.548202
H      5.296066 -4.664641  0.012861
C      3.748901 -5.700530  2.079553
H      2.843080 -5.905704  2.659974
H      3.832587 -6.473232  1.308125
H      4.611321 -5.824128  2.739868
C      2.611301 -4.362839  0.349734
H      1.603377 -4.320732  0.777537
H      2.709488 -3.554199 -0.380963
H      2.687331 -5.295223 -0.220473
N      1.931725 -1.743273  1.222774
C      6.089279  0.360745 -2.116445
O      6.285448  1.173139 -1.237921
H      6.614561  0.311006 -3.071670
O      5.180888 -0.592794 -2.049444
H      4.653677 -0.704546 -1.156178
C      1.005686  2.702398 -0.843582
C      0.994727  1.764874  0.328517
C      2.210846  1.538122  1.007628
C      3.443290  1.908884  0.483174
C      3.518376  2.795302 -0.736987
C      2.306919  2.577558 -1.644508
C     -0.139214  1.052827  0.676597
C     -1.487893  1.345341  0.096981
N      4.632890  1.546277  1.004036
C      4.771979  0.750641  2.243553
C      6.069024 -0.060904  2.172392
C      4.774009  1.703499  3.446733
H      0.140795  2.531786 -1.514825
H      0.884282  3.739270 -0.462984
H      2.168102  0.997170  1.948280
H      4.456759  2.637538 -1.310373
H      3.557366  3.853082 -0.394360
H      2.362023  1.573655 -2.113246
H      2.317129  3.303341 -2.478012
H     -0.192930  0.611081  1.674268
H     -1.866616  2.311463  0.461666
H     -1.487924  1.389224 -0.998755
H     -2.226226  0.586406  0.393909
H      5.476873  1.624505  0.423123
H      3.906841  0.034211  2.328596
H      6.210994 -0.644936  3.089400
H      6.035237 -0.778143  1.338215
H      6.952198  0.571410  2.037521
H      5.622596  2.394782  3.412661
H      4.835401  1.142281  4.385701
H      3.858862  2.307481  3.476604
68
Structure 3 - REFINED - Rel. E. = 0.245 kcal/mol
C      0.317539 -0.940588 -0.034694
C      1.304797 -1.096251 -0.970633
H     -0.742210 -1.105557 -0.165681
H      1.208530 -1.112629 -2.033500
C      2.606761 -1.187235 -0.305932
O      3.724686 -1.080653 -0.766364
C      0.949596 -1.176556  1.331133
O      0.448435 -1.213631  2.417654
C      3.292839 -1.667379  2.093315
C      4.123420 -2.800432  2.099115
C      3.350631 -0.718989  3.129097
C      5.149166 -2.816103  3.057428
C      4.321726 -0.815216  4.113123
H      2.609471  0.081350  3.159250
C      5.256209 -1.846886  4.046159
H      5.884198 -3.621318  3.035497
H      4.354397 -0.093075  4.924405
H      6.054726 -1.909758  4.780349
C      3.992771 -4.020512  1.199719
C      4.991935 -3.891404  0.041622
H      4.695393 -3.109535 -0.668692
H      5.992530 -3.624099  0.402501
H      5.073602 -4.825015 -0.521323
C      4.327595 -5.293696  2.015564
H      3.740367 -5.330874  2.939319
H      4.102462 -6.197844  1.440607
H      5.386948 -5.348079  2.281273
C      2.570810 -4.232050  0.653236
H      1.817831 -4.044077  1.426737
H      2.352143 -3.590117 -0.204702
H      2.429985 -5.259753  0.300702
N      2.333211 -1.415592  1.079224
C      6.946713 -0.161472 -0.032869
O      6.639046  0.920253 -0.484600
H      7.963670 -0.496570  0.184814
O      6.089938 -1.119320  0.267080
H      5.098603 -1.020292 -0.047107
C      1.026368  2.177479 -1.662839
C      0.941494  1.716351 -0.236415
C      2.112473  1.862731  0.550884
C      3.350832  2.119204 -0.001453
C      3.550466  2.288038 -1.488007
C      2.361933  1.768450 -2.295986
C     -0.191064  1.118745  0.269670
C     -1.510276  1.190733 -0.437076
N      4.493200  2.270972  0.715633
C      4.542175  2.334333  2.186753
C      5.871324  1.738299  2.667891
C      4.405135  3.800262  2.626798
H      0.193890  1.777868 -2.274212
H      0.909683  3.281617 -1.684774
H      2.009204  1.733570  1.623072
H      4.479777  1.767158 -1.820859
H      3.718919  3.365991 -1.700671
H      2.422304  0.661551 -2.367179
H      2.420291  2.140562 -3.335802
H     -0.279674  0.968570  1.347906
H     -1.869697  2.229520 -0.480431
H     -1.464739  0.819383 -1.468832
H     -2.283925  0.613361  0.086189
H      5.394575  2.161257  0.241846
H      3.692818  1.736856  2.617581
H      5.965038  1.821830  3.755728
H      5.939476  0.669579  2.416278
H      6.736951  2.242656  2.223967
H      5.210635  4.422076  2.221361
H      4.430651  3.886063  3.717290
H      3.457030  4.227910  2.277071
68
Structure 4 - REFINED - Rel. E. = 0.349 kcal/mol
C      0.708218 -0.968036  0.217973
C      1.880252 -0.970404  0.941620
H     -0.262814 -1.324177  0.535335
H      1.992122 -0.990328  2.003840
C      3.021757 -0.947219  0.043425
O      4.202326 -0.824827  0.301062
C      1.086404 -1.106581 -1.245887
O      0.374872 -1.235026 -2.198852
C      3.194910 -2.014432 -2.202708
C      3.611681 -1.713837 -3.511800
C      3.398666 -3.299272 -1.663436
C      4.203909 -2.754790 -4.242263
C      4.001249 -4.300166 -2.409080
H      3.079877 -3.512006 -0.643062
C      4.398894 -4.025260 -3.714186
H      4.538297 -2.584273 -5.265901
H      4.158872 -5.286921 -1.980331
H      4.865250 -4.800813 -4.318736
C      3.513976 -0.338874 -4.150901
C      4.481682  0.584982 -3.392175
H      4.246274  0.613212 -2.319726
H      5.512834  0.222400 -3.478186
H      4.445159  1.606666 -3.779521
C      3.941351 -0.324091 -5.636497
H      3.306693 -0.979572 -6.241488
H      3.850757  0.686581 -6.050758
H      4.984832 -0.626219 -5.767328
C      2.071162  0.179931 -4.110145
H      1.361689 -0.602405 -4.411260
H      1.774323  0.497007 -3.105509
H      1.927909  1.037081 -4.773926
N      2.530741 -1.098550 -1.315181
C      6.917740  0.793073 -1.064177
O      6.527585  1.731743 -0.403285
H      7.821658  0.777568 -1.677237
O      6.294398 -0.365548 -1.151374
H      5.420986 -0.499301 -0.601326
C      1.000806  2.580703 -1.123980
C      0.902866  1.773170  0.134937
C      1.984101  1.795041  1.041444
C      3.240043  2.269460  0.685660
C      3.412869  3.111664 -0.552790
C      2.437774  2.666003 -1.641347
C     -0.189524  0.964421  0.394945
C     -1.378803  0.901975 -0.507435
N      4.364479  2.047400  1.398818
C      4.379533  1.260767  2.650751
C      5.741416  0.571900  2.789172
C      4.112948  2.203260  3.833229
H      0.348282  2.170695 -1.923274
H      0.603275  3.596680 -0.911650
H      1.827714  1.356796  2.022126
H      4.454898  3.074491 -0.940719
H      3.231195  4.174304 -0.280332
H      2.741215  1.661285 -2.014180
H      2.496397  3.345876 -2.510876
H     -0.395346  0.691651  1.432376
H     -1.852226  1.887311 -0.616776
H     -1.120669  0.548062 -1.518423
H     -2.148099  0.219113 -0.125180
H      5.277722  2.194318  0.953068
H      3.578625  0.470047  2.601513
H      5.805031  0.015605  3.730170
H      5.897699 -0.150964  1.972659
H      6.573155  1.284294  2.766943
H      4.880308  2.982393  3.906235
H      4.104496  1.653474  4.779644
H      3.145068  2.708606  3.728989
