58
M0001
N    -0.257665365    3.338726546    0.421520011   
C   -0.062131062    1.874581089    0.636621048   
C     1.134567689    1.346177875   -0.192081509   
O     1.898084646    0.497679619    0.261482979   
H    0.206494137    1.725059173    1.692658259   
C   -1.258150787    0.941938521    0.356206357   
H  -2.085220430    1.170984791    1.038720987   
H  -0.950226953   -0.090825830    0.570994085   
C   -1.801000032    0.959657465   -1.065333987   
O   -1.450124788    1.776050831   -1.908290108   
N   -2.759926946   -0.016574279   -1.256102359   
H  -2.956558054   -0.671991938   -0.516739396   
N     1.217638888    1.841988705   -1.475909781   
C    2.068670985    1.248787524   -2.508036759   
C     3.566090302    1.550697277   -2.272873524   
O     4.468507748    0.791521407   -2.611010881   
H     0.367242317    2.314644269   -1.796174736   
H    1.806334434    1.783342872   -3.430592989   
C    1.795884857   -0.232651160   -2.739351919   
H  0.726273829   -0.415762524   -2.886926980   
H  2.327407958   -0.588650431   -3.628550104   
H   2.131160279   -0.846702185   -1.897636978   
N     3.784676669    2.836610551   -1.805345935   
C    5.099335068    3.310799798   -1.370996574   
C     5.491206946    2.763773241    0.006489500   
O     6.609186551    2.762417400    0.498891864   
H     2.988470808    3.199727423   -1.291933393   
H    4.960798615    4.389774178   -1.225851899   
C    6.212433395    3.118581571   -2.393484135   
H   5.891037116    3.431829281   -3.392123381   
H   7.089572915    3.714597966   -2.117299684   
H   6.547783446    2.078305033   -2.448249546   
C    -3.256799890   -0.403621535   -2.468991157   
O    -3.124105917    0.164521057   -3.538153935   
O    -3.963620724   -1.546581693   -2.274933888   
C    -4.626600669   -2.208542197   -3.385665728   
C    -5.294188446   -3.442397743   -2.758734446   
H    -5.999252384   -3.146908908   -1.972927636   
H    -4.548712229   -4.086871059   -2.278270444   
H    -5.835223272   -4.035334965   -3.503660542   
C    -5.716801430   -1.319895231   -3.994548004   
H    -5.296268985   -0.457551993   -4.520383491   
H    -6.374597453   -0.921634446   -3.213858618   
H    -6.327299018   -1.875488961   -4.714596961   
C    -3.616183273   -2.681210825   -4.436813268   
H    -3.157430233   -1.843217089   -4.970062340   
H    -4.091755720   -3.323815141   -5.185637243   
H    -2.798816452   -3.239598597   -3.966785412   
C     0.857473013    4.102247661    1.001019439   
H     1.817792216    3.808168532    0.568339877   
H     0.919404457    3.977423349    2.088311909   
H     0.741281331    5.170423301    0.784643624   
C    -1.514230597    3.833199795    0.987203220   
H    -2.378172428    3.402455209    0.471725767   
H    -1.599637794    4.917739711    0.851676874   
H    -1.597692413    3.614433284    2.057772592   
O     4.431186748    2.363632373    0.743877133   
H     4.827764332    1.964121441    1.545134157   
