Title
 OpenBabel02212114563D

 24 23  0  0  0  0  0  0  0  0999 V2000
    2.1103    0.1766    0.1449 C   0  0  0  0  0  0  0  0  0  0  0  0
    1.9466   -0.1143    1.3266 O   0  0  0  0  0  0  0  0  0  0  0  0
    0.9495    0.3907   -0.7689 C   0  0  0  0  0  0  0  0  0  0  0  0
   -0.3066    0.2700   -0.3157 C   0  0  0  0  0  0  0  0  0  0  0  0
   -1.4625    0.4637   -1.1616 C   0  0  0  0  0  0  0  0  0  0  0  0
   -2.7481    0.3760   -0.7849 C   0  0  0  0  0  0  0  0  0  0  0  0
    3.4814    0.3423   -0.4842 C   0  0  0  0  0  0  0  0  0  0  0  0
    4.6074    0.1087    0.5080 C   0  0  0  0  0  0  0  0  0  0  0  0
   -3.3038    0.0885    0.5817 C   0  0  0  0  0  0  0  0  0  0  0  0
   -3.9832   -1.2713    0.6260 C   0  0  0  0  0  0  0  0  0  0  0  0
    1.1744    0.6443   -1.7976 H   0  0  0  0  0  0  0  0  0  0  0  0
   -0.4701    0.0106    0.7279 H   0  0  0  0  0  0  0  0  0  0  0  0
   -1.2641    0.6944   -2.2082 H   0  0  0  0  0  0  0  0  0  0  0  0
   -3.5028    0.5428   -1.5536 H   0  0  0  0  0  0  0  0  0  0  0  0
    3.5581    1.3585   -0.8860 H   0  0  0  0  0  0  0  0  0  0  0  0
    3.5727   -0.3718   -1.3099 H   0  0  0  0  0  0  0  0  0  0  0  0
    4.5631   -0.9041    0.9218 H   0  0  0  0  0  0  0  0  0  0  0  0
    4.5486    0.8149    1.3429 H   0  0  0  0  0  0  0  0  0  0  0  0
    5.5783    0.2366    0.0196 H   0  0  0  0  0  0  0  0  0  0  0  0
   -2.5373    0.1347    1.3603 H   0  0  0  0  0  0  0  0  0  0  0  0
   -4.0361    0.8669    0.8268 H   0  0  0  0  0  0  0  0  0  0  0  0
   -3.2713   -2.0756    0.4114 H   0  0  0  0  0  0  0  0  0  0  0  0
   -4.4063   -1.4502    1.6197 H   0  0  0  0  0  0  0  0  0  0  0  0
   -4.7981   -1.3329   -0.1033 H   0  0  0  0  0  0  0  0  0  0  0  0
  1  2  2  0  0  0  0
  3  4  2  0  0  0  0
  3  1  1  0  0  0  0
  4 12  1  0  0  0  0
  5  6  2  0  0  0  0
  5  4  1  0  0  0  0
  6  9  1  0  0  0  0
  7  1  1  0  0  0  0
  7  8  1  0  0  0  0
  8 17  1  0  0  0  0
  8 18  1  0  0  0  0
  9 10  1  0  0  0  0
  9 21  1  0  0  0  0
  9 20  1  0  0  0  0
 10 23  1  0  0  0  0
 11  3  1  0  0  0  0
 13  5  1  0  0  0  0
 14  6  1  0  0  0  0
 15  7  1  0  0  0  0
 16  7  1  0  0  0  0
 19  8  1  0  0  0  0
 22 10  1  0  0  0  0
 24 10  1  0  0  0  0
M  END
$$$$
Title
 OpenBabel02212114563D

 24 23  0  0  0  0  0  0  0  0999 V2000
    2.3628    0.3495   -0.6269 C   0  0  0  0  0  0  0  0  0  0  0  0
    2.2722    0.8779   -1.7321 O   0  0  0  0  0  0  0  0  0  0  0  0
    1.1640   -0.2126    0.0632 C   0  0  0  0  0  0  0  0  0  0  0  0
   -0.0614   -0.0368   -0.4513 C   0  0  0  0  0  0  0  0  0  0  0  0
   -1.2559   -0.5568    0.1724 C   0  0  0  0  0  0  0  0  0  0  0  0
   -2.4816   -0.3612   -0.3376 C   0  0  0  0  0  0  0  0  0  0  0  0
    3.6752    0.2267    0.1259 C   0  0  0  0  0  0  0  0  0  0  0  0
    4.8578    0.7217   -0.6872 C   0  0  0  0  0  0  0  0  0  0  0  0
   -3.7394   -0.9134    0.2693 C   0  0  0  0  0  0  0  0  0  0  0  0
   -4.6544    0.1958    0.7654 C   0  0  0  0  0  0  0  0  0  0  0  0
    1.3340   -0.7474    0.9894 H   0  0  0  0  0  0  0  0  0  0  0  0
   -0.1844    0.5268   -1.3765 H   0  0  0  0  0  0  0  0  0  0  0  0
   -1.1406   -1.1286    1.0900 H   0  0  0  0  0  0  0  0  0  0  0  0
   -2.6049    0.2098   -1.2557 H   0  0  0  0  0  0  0  0  0  0  0  0
    3.8315   -0.8259    0.3884 H   0  0  0  0  0  0  0  0  0  0  0  0
    3.5951    0.8106    1.0493 H   0  0  0  0  0  0  0  0  0  0  0  0
    5.7815    0.6398   -0.1059 H   0  0  0  0  0  0  0  0  0  0  0  0
    4.9730    0.1320   -1.6032 H   0  0  0  0  0  0  0  0  0  0  0  0
    4.7288    1.7686   -0.9811 H   0  0  0  0  0  0  0  0  0  0  0  0
   -3.5123   -1.5946    1.0989 H   0  0  0  0  0  0  0  0  0  0  0  0
   -4.2627   -1.5058   -0.4919 H   0  0  0  0  0  0  0  0  0  0  0  0
   -4.8910    0.9040   -0.0360 H   0  0  0  0  0  0  0  0  0  0  0  0
   -5.5960   -0.2311    1.1290 H   0  0  0  0  0  0  0  0  0  0  0  0
   -4.1914    0.7509    1.5878 H   0  0  0  0  0  0  0  0  0  0  0  0
  1  3  1  0  0  0  0
  1  7  1  0  0  0  0
  2  1  2  0  0  0  0
  3 11  1  0  0  0  0
  4  3  2  0  0  0  0
  4  5  1  0  0  0  0
  5 13  1  0  0  0  0
  6  5  2  0  0  0  0
  6  9  1  0  0  0  0
  7 15  1  0  0  0  0
  7 16  1  0  0  0  0
  8 17  1  0  0  0  0
  8  7  1  0  0  0  0
  9 10  1  0  0  0  0
  9 20  1  0  0  0  0
 10 23  1  0  0  0  0
 10 24  1  0  0  0  0
 12  4  1  0  0  0  0
 14  6  1  0  0  0  0
 18  8  1  0  0  0  0
 19  8  1  0  0  0  0
 21  9  1  0  0  0  0
 22 10  1  0  0  0  0
M  END
$$$$
Title
 OpenBabel02212114563D

 24 23  0  0  0  0  0  0  0  0999 V2000
    2.5385    1.3052   -0.9487 C   0  0  0  0  0  0  0  0  0  0  0  0
    3.1508    2.3413   -1.2120 O   0  0  0  0  0  0  0  0  0  0  0  0
    1.0990    1.4155   -0.5829 C   0  0  0  0  0  0  0  0  0  0  0  0
    0.3146    0.3982   -0.2005 C   0  0  0  0  0  0  0  0  0  0  0  0
   -1.0782    0.5816    0.1437 C   0  0  0  0  0  0  0  0  0  0  0  0
   -1.8716   -0.4290    0.5296 C   0  0  0  0  0  0  0  0  0  0  0  0
    3.2318   -0.0404   -0.9787 C   0  0  0  0  0  0  0  0  0  0  0  0
    3.7797   -0.4032    0.3877 C   0  0  0  0  0  0  0  0  0  0  0  0
   -3.3181   -0.2583    0.8969 C   0  0  0  0  0  0  0  0  0  0  0  0
   -4.2242   -1.0466   -0.0360 C   0  0  0  0  0  0  0  0  0  0  0  0
    0.7159    2.4305   -0.6457 H   0  0  0  0  0  0  0  0  0  0  0  0
    0.6997   -0.6149   -0.1283 H   0  0  0  0  0  0  0  0  0  0  0  0
   -1.4847    1.5899    0.0806 H   0  0  0  0  0  0  0  0  0  0  0  0
   -1.4766   -1.4406    0.6014 H   0  0  0  0  0  0  0  0  0  0  0  0
    4.0517    0.0234   -1.7041 H   0  0  0  0  0  0  0  0  0  0  0  0
    2.5570   -0.8136   -1.3577 H   0  0  0  0  0  0  0  0  0  0  0  0
    2.9784   -0.4986    1.1272 H   0  0  0  0  0  0  0  0  0  0  0  0
    4.3171   -1.3554    0.3422 H   0  0  0  0  0  0  0  0  0  0  0  0
    4.4728    0.3643    0.7481 H   0  0  0  0  0  0  0  0  0  0  0  0
   -3.6085    0.7985    0.8737 H   0  0  0  0  0  0  0  0  0  0  0  0
   -3.4628   -0.6066    1.9260 H   0  0  0  0  0  0  0  0  0  0  0  0
   -5.2712   -0.9190    0.2569 H   0  0  0  0  0  0  0  0  0  0  0  0
   -3.9928   -2.1167   -0.0040 H   0  0  0  0  0  0  0  0  0  0  0  0
   -4.1182   -0.7056   -1.0715 H   0  0  0  0  0  0  0  0  0  0  0  0
  1  3  1  0  0  0  0
  2  1  2  0  0  0  0
  3  4  2  0  0  0  0
  4 12  1  0  0  0  0
  4  5  1  0  0  0  0
  5  6  2  0  0  0  0
  6 14  1  0  0  0  0
  6  9  1  0  0  0  0
  7  1  1  0  0  0  0
  7  8  1  0  0  0  0
  8 19  1  0  0  0  0
  8 17  1  0  0  0  0
  9 21  1  0  0  0  0
 10 23  1  0  0  0  0
 10 22  1  0  0  0  0
 10  9  1  0  0  0  0
 11  3  1  0  0  0  0
 13  5  1  0  0  0  0
 15  7  1  0  0  0  0
 16  7  1  0  0  0  0
 18  8  1  0  0  0  0
 20  9  1  0  0  0  0
 24 10  1  0  0  0  0
M  END
$$$$
Title
 OpenBabel02212114563D

 24 23  0  0  0  0  0  0  0  0999 V2000
    1.6505    0.4259   -0.9530 C   0  0  0  0  0  0  0  0  0  0  0  0
    1.7136    0.6554   -2.1604 O   0  0  0  0  0  0  0  0  0  0  0  0
    0.3451    0.6435   -0.2693 C   0  0  0  0  0  0  0  0  0  0  0  0
    0.1250    0.4492    1.0386 C   0  0  0  0  0  0  0  0  0  0  0  0
   -1.1445    0.6943    1.6843 C   0  0  0  0  0  0  0  0  0  0  0  0
   -2.3333    0.1554    1.3704 C   0  0  0  0  0  0  0  0  0  0  0  0
    2.8405   -0.0655   -0.1475 C   0  0  0  0  0  0  0  0  0  0  0  0
    4.0804   -0.2531   -1.0063 C   0  0  0  0  0  0  0  0  0  0  0  0
   -2.6402   -0.8520    0.2980 C   0  0  0  0  0  0  0  0  0  0  0  0
   -3.5231   -0.2562   -0.7874 C   0  0  0  0  0  0  0  0  0  0  0  0
   -0.4455    0.9865   -0.9305 H   0  0  0  0  0  0  0  0  0  0  0  0
    0.9227    0.1467    1.7118 H   0  0  0  0  0  0  0  0  0  0  0  0
   -1.0953    1.3678    2.5402 H   0  0  0  0  0  0  0  0  0  0  0  0
   -3.1894    0.4493    1.9780 H   0  0  0  0  0  0  0  0  0  0  0  0
    2.5808   -1.0241    0.3143 H   0  0  0  0  0  0  0  0  0  0  0  0
    3.0594    0.6662    0.6374 H   0  0  0  0  0  0  0  0  0  0  0  0
    4.9162   -0.6085   -0.3959 H   0  0  0  0  0  0  0  0  0  0  0  0
    3.9014   -0.9850   -1.8010 H   0  0  0  0  0  0  0  0  0  0  0  0
    4.3781    0.6890   -1.4785 H   0  0  0  0  0  0  0  0  0  0  0  0
   -3.1604   -1.6993    0.7604 H   0  0  0  0  0  0  0  0  0  0  0  0
   -1.7315   -1.2614   -0.1540 H   0  0  0  0  0  0  0  0  0  0  0  0
   -3.0267    0.5824   -1.2870 H   0  0  0  0  0  0  0  0  0  0  0  0
   -3.7532   -1.0126   -1.5446 H   0  0  0  0  0  0  0  0  0  0  0  0
   -4.4706    0.1060   -0.3741 H   0  0  0  0  0  0  0  0  0  0  0  0
  1  3  1  0  0  0  0
  1  7  1  0  0  0  0
  2  1  2  0  0  0  0
  3  4  2  0  0  0  0
  4  5  1  0  0  0  0
  4 12  1  0  0  0  0
  5 13  1  0  0  0  0
  6  5  2  0  0  0  0
  6 14  1  0  0  0  0
  7 15  1  0  0  0  0
  7 16  1  0  0  0  0
  8 17  1  0  0  0  0
  8  7  1  0  0  0  0
  9 20  1  0  0  0  0
  9  6  1  0  0  0  0
 10 24  1  0  0  0  0
 10  9  1  0  0  0  0
 11  3  1  0  0  0  0
 18  8  1  0  0  0  0
 19  8  1  0  0  0  0
 21  9  1  0  0  0  0
 22 10  1  0  0  0  0
 23 10  1  0  0  0  0
M  END
$$$$
