18
Hypermolecule originated from Resources/indole/indole_ensemble
D     0.999955 1.58691  1.260217
D     -1.000045 1.58691  1.260217
C     3.3e-05  -2.02587 -0.868875
C     7.3e-05  -0.76733 -1.478529
C     2.1e-05  0.356232 -0.643402
C     -1.5e-05 0.259835 0.748511
C     -6.5e-05 -1.018345 1.339302
C     1.8e-05  -2.152427 0.518819
C     -4.5e-05 1.58691  1.260217
C     -1.6e-05 2.450352 0.188526
N     3e-05    1.697137 -0.955685
H     7.7e-05  -2.91957 -1.488741
H     4.4e-05  -0.672741 -2.559213
H     -8.8e-05 -1.124861 2.419823
H     2.2e-05  -3.140919 0.971232
H     -2.2e-05 1.875393 2.303059
H     -6.3e-05 3.530928 0.141568
H     -3e-06   2.065277 -1.896613
