93

C          1.80237       -4.33226       -1.03306
C          0.91622       -3.38558       -1.86747
C         -1.70796       -6.86644        1.02148
C         -1.11363       -5.67890        1.09216
C          1.41525       -0.25312        2.78104
C         -0.70698       -1.28554        3.28715
C         -0.35359       -1.15635        4.65975
C          1.65102       -0.16526        4.17154
C         -1.95586       -1.87307        2.93446
C         -2.80394       -2.32230        3.92305
C         -2.44632       -2.20417        5.29631
O         -4.00688       -2.88776        3.69681
N          0.81220       -0.60016        5.08286
C         -4.40926       -3.04418        2.34518
C         -0.01755       -0.98054        0.84818
C          0.72759       -2.19006        0.24337
C         -1.07809       -3.74196       -0.48434
C          1.05316       -3.37466        1.16419
C          1.08484       -4.64440        0.29329
C         -0.37012       -5.03935       -0.04668
C          0.24246       -0.81531        2.33299
N         -0.05672       -2.73536       -0.92891
C         -1.25963       -1.63289        5.64960
N          0.44415        0.21228        0.12011
C         -0.25131        1.25852       -0.14882
C         -1.65464        1.49506        0.30234
C         -1.64721        2.70921        1.25683
C         -1.01707        3.94789        0.60194
C          0.40250        3.62503        0.11378
C          0.41848        2.40953       -0.83358
C         -1.03471        5.14096        1.53595
C         -1.75014        6.29236        1.20203
C         -1.77469        7.39255        2.05639
C         -1.08017        7.35484        3.26166
C         -0.36218        6.21112        3.60635
C         -0.34050        5.11440        2.75052
H          1.98739       -5.25276       -1.59355
H          2.76807       -3.85269       -0.84443
H          0.32539       -3.90832       -2.62335
H          1.50062       -2.59227       -2.33484
H         -2.23526       -7.29043        1.87082
H         -1.68569       -7.46067        0.11041
H         -1.16463       -5.10886        2.02189
H          2.16499        0.11341        2.08240
H          2.57769        0.27701        4.53148
H         -2.26552       -1.92825        1.89671
H         -3.14715       -2.57362        6.03799
H         -5.40529       -3.48627        2.37899
H         -4.44449       -2.08273        1.82227
H         -3.72885       -3.71819        1.80810
H         -1.08626       -1.09347        0.65376
H          1.66314       -1.83073       -0.19757
H         -1.76939       -3.89229       -1.31658
H         -1.64274       -3.28591        0.33075
H          0.31564       -3.47575        1.96764
H          2.02226       -3.19329        1.63676
H          1.58401       -5.45974        0.82218
H         -0.35024       -5.74788       -0.88408
H         -0.96780       -1.52462        6.68936
H         -2.24702        1.73912       -0.58862
H         -2.10596        0.62316        0.77846
H         -1.09142        2.44780        2.16608
H         -2.67657        2.92157        1.56016
H         -1.62301        4.20323       -0.27912
H          1.05013        3.41062        0.97341
H          0.83282        4.48710       -0.40428
H          1.43998        2.14709       -1.11842
H         -0.15460        2.64039       -1.74012
H         -2.29520        6.32681        0.26154
H         -2.33795        8.27848        1.77844
H         -1.09678        8.21099        3.92912
H          0.18334        6.17296        4.54460
H          0.22430        4.22905        3.03462
C         -2.79838       -0.90388       -1.34477
O         -1.66866       -0.82498       -1.90852
O         -3.06439       -1.44744       -0.25476
C         -3.94570       -0.22897       -2.08529
C         -3.71872        0.38362       -3.31602
C         -5.22264       -0.21997       -1.52977
C         -4.78185        0.99350       -3.96843
H         -2.72524        0.37528       -3.74904
C         -6.25148        0.40407       -2.22173
H         -5.40108       -0.69698       -0.57342
C         -6.06650        1.02359       -3.44836
H         -6.88235        1.50572       -3.97152
N         -7.60118        0.41472       -1.63350
O         -7.74979       -0.13653       -0.55927
O         -8.48246        0.97497       -2.25788
N         -4.54247        1.63972       -5.26964
O         -5.49451        2.15214       -5.82757
O         -3.40633        1.62111       -5.70430
H         -0.59923       -1.94031       -1.39218
H          1.50153        0.24297       -0.12435
