16
Structure 1 - Rel. E. 0.0 kcal/mol
C         -0.83550       -1.48290       -0.18100
C         -2.06370       -0.83260       -0.01790
C          1.71410       -1.02090       -0.24480
C          0.30560       -0.71090       -0.12390
C         -2.12520        0.55950        0.19640
C          2.48230        0.23650       -0.09440
C          0.23840        0.66890        0.08890
O          3.68890        0.35490       -0.13980
C         -0.95990        1.33000        0.25210
N          1.52150        1.21510        0.10440
H         -0.78920       -2.55360       -0.34590
H         -2.98650       -1.40840       -0.05680
H          2.16010       -1.98190       -0.41400
H         -3.09430        1.03870        0.32000
H         -1.00530        2.39990        0.41670
H          1.74890        2.18760        0.24000
