27
structure_1_MEP_image_4
C     -1.560185 -1.444002 -0.063568
H     -1.091746 -1.218182 -1.022512
C     -0.843492 -1.799190  1.012778
H     -1.342012 -2.055708  1.948083
C      0.609678 -1.889334  1.042861
H      1.026039 -2.234770  1.992943
C      1.422464 -1.582934  0.027225
H      1.083694 -1.225859 -0.934436
H      2.495621 -1.669483  0.082274
C     -3.044872 -1.338003 -0.045071
H     -3.408735 -0.586392 -0.759638
H     -3.508469 -2.295207 -0.327919
H     -3.437758 -1.070584  0.944513
C      0.740072  1.566879  2.438108
C     -0.606723  1.642363  2.432269
C     -1.505323  1.641541  1.310954
C      1.641825  1.458280  1.323656
C     -1.223688  1.570779 -0.001130
C      1.365600  1.414101  0.009721
H      1.247517  1.576559  3.414701
H     -1.119341  1.707635  3.403910
H     -2.568986  1.694344  1.598450
H      2.702288  1.386325  1.619551
H     -2.054631  1.567870 -0.724566
H      2.196336  1.308839 -0.706655
C      0.072393  1.473950 -0.677661
O      0.073264  1.420923 -1.898235