27
Structure 1 - TS - Rel. E. = 0.0 kcal/mol
C     -1.499246 -0.980215  0.142953
H     -1.076260 -1.145481  1.141415
C     -0.742686 -1.137544 -0.983449
H     -1.237856 -1.200639 -1.955520
C      0.680644 -1.106771 -1.008318
H      1.140846 -1.118964 -2.001652
C      1.472881 -0.954782  0.088372
H      1.132593 -1.166128  1.097311
H      2.552551 -0.947823  0.003737
C     -2.989988 -1.106555  0.060401
H     -3.496551 -0.754596  0.968991
H     -3.411900 -0.554565 -0.789593
H     -3.275450 -2.163120 -0.070754
C      0.687691  2.260522 -1.624603
C     -0.681912  2.245161 -1.618063
C     -1.564519  1.756003 -0.636045
C      1.591062  1.786907 -0.654215
C     -1.279173  1.108606  0.537491
C      1.326728  1.133103  0.520392
H      1.162879  2.716184 -2.508122
H     -1.175734  2.689821 -2.496280
H     -2.633113  1.893419 -0.867717
H      2.653767  1.941755 -0.898121
H     -2.110592  0.972424  1.254798
H      2.172490  0.976084  1.216325
C      0.028409  1.035425  1.206565
O      0.037807  0.848936  2.415224
27
Structure 2 - TS - Rel. E. = 0.0 kcal/mol
C     -1.526934 -1.192954 -0.087480
H     -1.097081 -1.085168 -1.090977
C     -0.785986 -1.666134  0.957657
H     -1.292304 -1.979093  1.874070
C      0.637490 -1.675272  0.994553
H      1.088884 -1.960685  1.950034
C      1.441599 -1.255642 -0.020665
H      1.104402 -1.180374 -1.049772
H      2.520447 -1.297842  0.064484
C     -3.020005 -1.311904 -0.055217
H     -3.506657 -0.752292 -0.865098
H     -3.318104 -2.366278 -0.175897
H     -3.449551 -0.965329  0.893564
C      0.727290  1.391065  2.500726
C     -0.642028  1.415422  2.494493
C     -1.533506  1.232208  1.419823
C      1.620344  1.174491  1.434090
C     -1.262799  0.918202  0.113819
C      1.342727  0.874101  0.126591
H      1.212415  1.576055  3.472609
H     -1.128437  1.619602  3.461352
H     -2.598472  1.330828  1.685075
H      2.686072  1.226133  1.706615
H     -2.097123  0.998587 -0.608734
H      2.186402  0.891997 -0.588868
C      0.044462  1.002149 -0.555053
O      0.052849  1.160644 -1.767488
27
Structure 3 - TS - Rel. E. = 0.004 kcal/mol
C     -1.526124 -1.193071  0.080979
H     -1.099807 -1.085438  1.085787
C     -0.781388 -1.664379 -0.962683
H     -1.285644 -1.973729 -1.881691
C      0.642322 -1.676095 -0.994851
H      1.097895 -1.961532 -1.948444
C      1.443132 -1.258046  0.023610
H      1.101887 -1.186534  1.051575
H      2.522421 -1.298533 -0.057890
C     -3.019375 -1.312417  0.043015
H     -3.508135 -0.761030  0.857024
H     -3.447454 -0.955973 -0.902800
H     -3.318684 -2.367806  0.150915
C     -0.644772  1.417374 -2.488647
C      0.724633  1.391612 -2.495573
C      1.619604  1.172005 -1.430890
C     -1.536758  1.234719 -1.414186
C      1.342367  0.871634 -0.123272
C     -1.263862  0.919364 -0.109025
H     -1.131089  1.622485 -3.455119
H      1.207499  1.578108 -3.467903
H      2.685079  1.220419 -1.705185
H     -2.601958  1.334878 -1.678154
H      2.186278  0.886804  0.591915
H     -2.097351  0.997817  0.614896
C      0.044365  1.002946  0.558365
O      0.053657  1.164220  1.770361
27
Structure 4 - TS - Rel. E. = 0.02 kcal/mol
C     -1.533773 -1.099916 -0.310544
H     -1.142058 -0.850426 -1.304136
C     -0.750778 -1.706910  0.630135
H     -1.221237 -2.150288  1.511463
C      0.673158 -1.708004  0.616326
H      1.157649 -2.130996  1.502103
C      1.440991 -1.130068 -0.347962
H      1.070052 -0.907143 -1.343681
H      2.522755 -1.169841 -0.304011
C     -3.024087 -1.237588 -0.237256
H     -3.547863 -0.507758 -0.868263
H     -3.330340 -2.236447 -0.588303
H     -3.408491 -1.128719  0.785173
C     -0.634107  1.119050  2.573151
C      0.735450  1.104648  2.557171
C      1.616934  1.058706  1.460086
C     -1.538684  1.092195  1.494572
C      1.326421  0.950799  0.125468
C     -1.280152  0.970527  0.154437
H     -1.107618  1.170606  3.565954
H      1.232135  1.147109  3.539815
H      2.685253  1.082693  1.725911
H     -2.601428  1.146230  1.782070
H      2.159876  1.087142 -0.589275
H     -2.123259  1.146571 -0.540819
C      0.016678  1.157079 -0.513527
O      0.005472  1.477475 -1.693628
27
Structure 5 - TS - Rel. E. = 0.518 kcal/mol
C     -1.482448 -0.709264  0.127266
H     -1.040999 -0.348244  1.061692
C     -0.727319 -1.383169 -0.787776
H     -1.205394 -1.892974 -1.626237
C      0.702673 -1.379428 -0.771851
H      1.199967 -1.863787 -1.616896
C      1.435165 -0.727249  0.169813
H      1.013493 -0.406685  1.115182
H      2.516317 -0.764484  0.184992
C     -2.969688 -0.873958  0.154927
H     -3.474687 -0.060413  0.690837
H     -3.414672 -0.935161 -0.847797
H     -3.231740 -1.810072  0.675649
C     -0.707585  2.615582  1.406667
C      0.655924  2.598683  1.455655
C      1.577627  1.985794  0.575211
C     -1.578833  2.015024  0.468080
C      1.332341  1.276694 -0.565650
C     -1.273261  1.274877 -0.638690
H     -1.220314  3.170800  2.207398
H      1.123047  3.138367  2.294877
H      2.632631  2.088234  0.873478
H     -2.649426  2.152359  0.688383
H      2.183547  1.010270 -1.215978
H     -2.084523  1.011765 -1.339628
C      0.048534  1.244128 -1.296163
O      0.084070  1.171011 -2.511260
27
Structure 6 - TS - Rel. E. = 0.521 kcal/mol
C     -1.529642 -1.267120 -0.171944
H     -1.112004 -1.203202 -1.181459
C     -0.762615 -1.679605  0.878100
H     -1.227337 -1.923147  1.835651
C      0.666136 -1.718702  0.835916
H      1.172481 -1.968623  1.772325
C      1.391390 -1.363919 -0.257853
H      0.954214 -1.292808 -1.246889
H      2.471082 -1.435788 -0.279624
C     -3.021179 -1.378276 -0.110630
H     -3.522310 -0.726251 -0.836856
H     -3.331761 -2.410384 -0.341353
H     -3.426921 -1.141563  0.882745
C      0.711489  1.505727 -2.383130
C     -0.651973  1.549366 -2.355938
C     -1.539356  1.242583 -1.297540
C      1.616851  1.135506 -1.361466
C     -1.253920  0.846793 -0.021564
C      1.350261  0.764918 -0.074483
H      1.193539  1.796553 -3.330138
H     -1.150514  1.869789 -3.284089
H     -2.605845  1.320279 -1.561568
H      2.674411  1.130336 -1.666872
H     -2.071278  0.821439  0.720257
H      2.193154  0.658373  0.630202
C      0.066061  0.970882  0.627072
O      0.099065  1.242519  1.813774
27
Structure 7 - TS - Rel. E. = 0.526 kcal/mol
C     -1.538509 -1.393152 -0.145503
H     -1.119012 -1.351344 -1.155510
C     -0.773979 -1.787734  0.913156
H     -1.239586 -2.006352  1.876221
C      0.654617 -1.838672  0.869708
H      1.161176 -2.075633  1.809505
C      1.379839 -1.510165 -0.232098
H      0.941949 -1.454205 -1.221722
H      2.458628 -1.590157 -0.255530
C     -3.030669 -1.496457 -0.084975
H     -3.530376 -0.818467 -0.788496
H     -3.346331 -2.519342 -0.348542
H     -3.433901 -1.290153  0.916173
C     -0.643833  1.373760 -2.383902
C      0.719091  1.321428 -2.412744
C      1.623657  0.964522 -1.385432
C     -1.530656  1.092483 -1.317950
C      1.356872  0.622163 -0.090968
C     -1.246174  0.720972 -0.034670
H     -1.143484  1.678130 -3.316969
H      1.201613  1.589147 -3.366178
H      2.680407  0.943000 -1.692725
H     -2.596812  1.168728 -1.583250
H      2.199779  0.522546  0.614358
H     -2.062038  0.712296  0.708853
C      0.075955  0.855011  0.608215
O      0.114839  1.162297  1.785819
27
Structure 8 - NOT TS - Rel. E. = 0.527 kcal/mol
C     -1.543005 -1.393908  0.154705
H     -1.127704 -1.346452  1.166229
C     -0.774480 -1.798499 -0.897421
H     -1.236567 -2.022075 -1.860909
C      0.653503 -1.854820 -0.847014
H      1.163843 -2.104250 -1.781430
C      1.374499 -1.515355  0.254362
H      0.930817 -1.445093  1.240563
H      2.452722 -1.599018  0.284930
C     -3.035220 -1.493743  0.088809
H     -3.536503 -0.817747  0.793160
H     -3.434726 -1.283400 -0.912992
H     -3.354854 -2.516510  0.348331
C      0.723452  1.338575  2.398830
C     -0.639635  1.390343  2.371032
C     -1.527251  1.101185  1.308182
C      1.626495  0.971461  1.374293
C     -1.243923  0.718375  0.027914
C      1.358119  0.614884  0.083834
H      1.206220  1.617473  3.348658
H     -1.137222  1.701567  3.302653
H     -2.593310  1.182096  1.572649
H      2.683782  0.955402  1.680060
H     -2.060222  0.706442 -0.715141
H      2.200284  0.505272 -0.620957
C      0.077685  0.842301 -0.617425
O      0.116427  1.134095 -1.799108
27
Structure 9 - TS - Rel. E. = 11.634 kcal/mol
C     -1.235936 -0.726296 -0.528437
H     -1.346465 -0.457992 -1.608087
C     -0.305696 -1.935250 -0.440072
H     -0.465385 -2.721710 -1.163997
C      0.643511 -1.965093  0.502347
H      1.353390 -2.776312  0.610474
C      0.760560 -0.861710  1.523947
H      1.726823 -0.338649  1.598789
H      0.718948 -1.357012  2.539323
C     -2.579655 -1.213113  0.050174
H     -3.409763 -0.536054 -0.169382
H     -2.846509 -2.197789 -0.348758
H     -2.511935 -1.304471  1.144631
C      0.842578  2.771594  1.243509
C     -0.457027  3.123139  1.275479
C     -1.513509  2.586663  0.441767
C      1.453106  1.768324  0.395225
C     -1.579095  1.324895 -0.036380
C      0.869433  0.621562 -0.010757
H      1.550403  3.293136  1.898481
H     -0.781481  3.913829  1.960704
H     -2.307572  3.302766  0.204018
H      2.493013  1.972553  0.126816
H     -2.433746  1.112110 -0.689360
H      1.380608 -0.029319 -0.724731
C     -0.573546  0.343632  0.272914
O     -0.428710 -0.078578  1.629397
27
Structure 10 - TS - Rel. E. = 31.617 kcal/mol
C     -1.472052 -0.898327 -0.201969
H     -0.971649 -1.510168  0.557602
C     -0.756174 -0.437389 -1.273291
H     -1.213971  0.185054 -2.047685
C      0.687952 -0.462320 -1.284930
H      1.183378  0.134066 -2.062207
C      1.400108 -0.939655 -0.236307
H      0.958699 -1.610772  0.495478
H      2.481173 -1.035672 -0.170538
C     -2.965631 -1.103531 -0.129580
H     -3.226112 -2.019105  0.427512
H     -3.486943 -0.312780  0.446821
H     -3.425642 -1.162471 -1.116983
C      0.683849  3.204679 -0.930891
C     -0.665835  3.228086 -0.882837
C     -1.513368  2.172993 -0.444486
C      1.540813  2.129179 -0.524842
C     -1.254004  1.134469  0.420491
C      1.318618  1.116069  0.342156
H      1.201204  4.107209 -1.277268
H     -1.178752  4.141423 -1.235549
H     -2.530814  2.255234 -0.863728
H      2.548765  2.226988 -0.971948
H     -2.245023  0.757920  0.749035
H      2.226484  0.700879  0.830805
C      0.036642  0.884873  1.076898
O      0.058070  0.383453  2.179967
27
Structure 11 - TS - Rel. E. = 50.145 kcal/mol
C     -1.594251 -1.084343 -0.136018
H     -1.339480 -1.184053  0.925670
C     -0.764021 -1.404692 -1.161764
H     -1.224458 -1.622441 -2.134151
C      0.679941 -1.309743 -1.247285
H      1.034495 -1.369761 -2.287356
C      1.599465 -1.002231 -0.303651
H      1.516662 -1.210973  0.758083
H      2.648476 -0.890056 -0.568287
C     -3.081836 -1.108263 -0.351889
H     -3.603933 -0.438104  0.344646
H     -3.376837 -0.823890 -1.368554
H     -3.471161 -2.123030 -0.173035
C      0.694931  2.851838  1.640415
C     -0.661786  2.804252  1.672483
C     -1.533238  2.153884  0.702752
C      1.568255  2.260048  0.634464
C     -1.184406  1.003903  0.060247
C      1.274927  1.087480  0.004645
H      1.216124  3.447911  2.397880
H     -1.187763  3.361491  2.455356
H     -2.454394  2.684454  0.463270
H      2.443959  2.849322  0.364165
H     -1.584882  0.827866 -0.932453
H      1.683007  0.927332 -0.986916
C      0.079812  0.523083  0.672965
O      0.119339 -0.002019  1.762419
27
Structure 12 - TS - Rel. E. = 99.934 kcal/mol
C     -1.389646 -0.901882  0.080466
H     -1.699391 -0.901369  1.140524
C     -0.819470 -2.322837 -0.158691
H     -1.493888 -3.157606 -0.123251
C      0.500356 -2.356898 -0.386690
H      1.105368 -3.223776 -0.578519
C      1.171838 -0.981638 -0.314614
H      1.788451 -1.010602  0.597039
H      1.737823 -0.744468 -1.219187
C     -2.477220 -0.624142 -0.939345
H     -3.285190 -0.003491 -0.532489
H     -2.075810 -0.097941 -1.817858
H     -2.939403 -1.550434 -1.305518
C     -0.862030  2.674281 -1.224705
C      0.466890  2.608923 -1.474283
C      1.570430  2.004469 -0.741961
C     -1.686271  2.144606 -0.149071
C      1.427102  1.068389  0.232649
C     -1.310392  1.143471  0.694892
H     -1.461374  3.250420 -1.948660
H      0.817037  3.131224 -2.378979
H      2.560427  2.368109 -1.018629
H     -2.668884  2.605413 -0.052795
H      2.246159  0.773536  0.885012
H     -1.897770  0.872532  1.569906
C      0.062932  0.785501  0.556584
O     -0.114151 -0.214528 -0.328449
