25
TS candidate 0 - Rel. E. = 0.0 kcal/mol
C     -1.433116 -1.257781 -0.203996
H     -1.750120 -1.598278  0.829026
C     -0.503660 -2.315573 -0.740009
H     -0.861427 -2.916769 -1.567713
C      0.703043 -2.463031 -0.183870
H      1.424926 -3.201941 -0.520200
C      1.109826 -1.604130  0.955624
H      0.657280 -1.955069  1.897875
H      2.200090 -1.562768  1.104821
C     -2.709131 -1.157677 -1.051676
H     -3.392597 -0.391946 -0.669550
H     -2.486759 -0.898649 -2.097185
H     -3.254150 -2.108201 -1.061169
O      1.042428  0.935145 -1.401257
C      1.619401  0.598338 -0.183605
C     -0.308232  0.607906 -1.428203
C      0.583072 -0.038378  0.720999
O      2.775213  0.823816 -0.001694
C     -0.737519  0.031526 -0.081090
O     -0.934577  0.835242 -2.415137
H     -1.421916  0.792025  0.390738
C      0.520508  0.664009  2.057152
H      1.491288  0.633161  2.576737
H      0.252094  1.725345  1.960576
H     -0.218013  0.200313  2.724335
25
TS candidate 1 - Rel. E. = 0.001949999999993679 kcal/mol
C     -1.429685 -1.264445  0.204448
H     -1.751822 -1.600129 -0.828474
C     -0.491884 -2.319775  0.730578
H     -0.842788 -2.925726  1.557837
C      0.714057 -2.456522  0.170225
H      1.443127 -3.189607  0.503619
C      1.111707 -1.591130 -0.967354
H      0.659299 -1.940493 -1.910422
H      2.201048 -1.542232 -1.120540
C     -2.700441 -1.175837  1.060976
H     -3.387313 -0.407025  0.691472
H     -3.242782 -2.127761  1.064064
H     -2.472761 -0.928494  2.108222
O      1.043350  0.930954  1.402713
C      1.614326  0.608091  0.178536
C     -0.304892  0.595019  1.436114
C      0.576284 -0.029749 -0.723404
O      2.767159  0.843759 -0.009161
C     -0.739913  0.028469  0.086705
O     -0.924725  0.807093  2.430578
H     -1.429316  0.790162 -0.375443
C      0.501955  0.677114 -2.056549
H      0.223942  1.735609 -1.955311
H      1.471219  0.655824 -2.579840
H     -0.235806  0.209719 -2.722157
25
TS candidate 2 - Rel. E. = 53.495329999999996 kcal/mol
C     -1.497198 -1.219620 -0.216861
H     -1.179366 -1.227809 -1.266726
C     -0.722883 -1.850070  0.751029
H     -1.191178 -2.194774  1.672878
C      0.665530 -1.912597  0.635703
H      1.243387 -2.317598  1.470043
C      1.330642 -1.326492 -0.429968
H      0.896986 -1.280716 -1.422452
H      2.410511 -1.252526 -0.444800
C     -2.957871 -1.019481 -0.000458
H     -3.360041 -0.189115 -0.607884
H     -3.523752 -1.918268 -0.295680
H     -3.216026 -0.808233  1.045181
O      0.108258  1.423761 -2.121584
C      1.236417  1.155049 -1.339182
C     -1.055584  1.232442 -1.350237
C      0.756848  0.695759  0.008126
O      2.326540  1.304058 -1.796256
C     -0.646436  0.741747 -0.017082
O     -2.116531  1.469115 -1.841000
H     -1.273861  0.901248  0.844643
C      1.596869  0.935492  1.202613
H      2.665422  0.742888  1.015334
H      1.521559  1.985328  1.535676
H      1.293737  0.311367  2.056596
25
TS candidate 3 - Rel. E. = 53.50508 kcal/mol
C     -1.496276 -1.220704  0.213750
H     -1.182423 -1.233411  1.264848
C     -0.719252 -1.848770 -0.753266
H     -1.184116 -2.189444 -1.678189
C      0.668874 -1.913541 -0.633935
H      1.247535 -2.322731 -1.465741
C      1.332033 -1.326249  0.432088
H      0.896786 -1.280774  1.423966
H      2.412140 -1.253336  0.449363
C     -2.955571 -1.013503 -0.004597
H     -3.353451 -0.184646  0.608138
H     -3.212323 -0.793156 -1.048741
H     -3.524935 -1.911972  0.284422
O      0.113193  1.415697  2.126826
C      1.239384  1.150859  1.339831
C     -1.052786  1.225993  1.358750
C      0.756237  0.695205 -0.007055
O      2.330621  1.298929  1.794628
C     -0.646806  0.742045  0.022222
O     -2.112735  1.457557  1.854358
H     -1.275871  0.904384 -0.837764
C      1.588225  0.936397 -1.206877
H      1.521745  1.990182 -1.529618
H      2.656255  0.731845 -1.033147
H      1.267807  0.322953 -2.062656
25
TS candidate 4 - Rel. E. = 54.55419 kcal/mol
C     -1.401879 -1.245021 -0.287631
H     -0.989676 -1.114521 -1.292890
C     -0.656523 -1.884851  0.699113
H     -1.171934 -2.343237  1.547734
C      0.735593 -1.825797  0.715334
H      1.267706 -2.216045  1.588489
C      1.439703 -1.137963 -0.260611
H      1.096373 -1.074832 -1.286145
H      2.501976 -0.949934 -0.152480
C     -2.891424 -1.285686 -0.209990
H     -3.378983 -0.743446 -1.029309
H     -3.258757 -2.323496 -0.252503
H     -3.277545 -0.859422  0.733012
O     -0.104322  0.861342  2.300224
C     -1.239043  0.830450  1.480262
C      1.052922  0.885238  1.501398
C     -0.778560  0.780939  0.055339
O     -2.323284  0.858424  1.977022
C      0.625748  0.819172  0.082556
O      2.121762  0.955640  2.024718
H      1.254789  1.216116 -0.697217
C     -1.600622  1.437166 -0.990527
H     -2.681031  1.340666 -0.796425
H     -1.391976  2.520565 -1.031360
H     -1.408247  1.042614 -1.997345
25
TS candidate 5 - Rel. E. = 54.55713 kcal/mol
C     -1.399798 -1.244151  0.288856
H     -0.986459 -1.110333  1.293129
C     -0.655381 -1.886480 -0.697129
H     -1.172265 -2.348241 -1.543073
C      0.736494 -1.826426 -0.715750
H      1.267634 -2.220179 -1.587944
C      1.441687 -1.134135  0.256399
H      1.101288 -1.067450  1.282413
H      2.503533 -0.946294  0.145277
C     -2.889291 -1.289743  0.214156
H     -3.375950 -0.736905  1.027150
H     -3.278873 -0.877626 -0.733471
H     -3.253885 -2.327998  0.271502
O     -0.115501  0.857339 -2.303382
C     -1.246648  0.829846 -1.477978
C      1.045652  0.883849 -1.510373
C     -0.779352  0.782456 -0.055496
O     -2.332839  0.858865 -1.970139
C      0.625069  0.821416 -0.089463
O      2.111915  0.953852 -2.038883
H      1.257058  1.223469  0.685299
C     -1.595418  1.440003  0.994433
H     -1.390118  2.524304  1.029919
H     -2.677250  1.338998  0.809903
H     -1.394470  1.050051  2.001194
25
TS candidate 6 - Rel. E. = 54.79717 kcal/mol
C     -1.367072 -1.154206 -0.083628
H     -0.902208 -1.335759  0.892403
C     -0.664628 -1.426341 -1.254436
H     -1.214686 -1.607026 -2.179314
C      0.724401 -1.324626 -1.312911
H      1.214945 -1.389690 -2.285911
C      1.468212 -0.986597 -0.194086
H      1.181596 -1.297000  0.805231
H      2.521830 -0.744894 -0.269714
C     -2.857379 -1.221069 -0.082773
H     -3.307859 -0.602489  0.712527
H     -3.307244 -0.902354 -1.031625
H     -3.198156 -2.252936  0.103618
O     -0.137023  1.062313  2.310988
C     -1.264561  1.029666  1.480853
C      1.028058  1.066449  1.521374
C     -0.790671  0.909017  0.063139
O     -2.351805  1.101468  1.965010
C      0.614182  0.960932  0.103281
O      2.091380  1.142249  2.054472
H      1.242316  1.346045 -0.683673
C     -1.610886  1.492310 -1.024629
H     -2.690907  1.345138 -0.865188
H     -1.452300  2.581624 -1.100198
H     -1.363446  1.066992 -2.008400
25
TS candidate 7 - Rel. E. = 54.79725 kcal/mol
C     -1.369383 -1.151162  0.084643
H     -0.902549 -1.333152 -0.890580
C     -0.670969 -1.424103  1.257408
H     -1.224478 -1.604756  2.180234
C      0.718665 -1.325171  1.317196
H      1.210444 -1.390015  2.289332
C      1.461005 -0.991972  0.196185
H      1.166147 -1.301332 -0.801294
H      2.515955 -0.755947  0.267156
C     -2.859750 -1.218554  0.077178
H     -3.308741 -0.571993 -0.696694
H     -3.197581 -2.244054 -0.147406
H     -3.313829 -0.936097  1.035341
O     -0.132060  1.057430 -2.309505
C     -1.260239  1.028072 -1.480321
C      1.032556  1.063183 -1.518895
C     -0.787369  0.910496 -0.061953
O     -2.346828  1.098464 -1.966168
C      0.617401  0.960101 -0.101152
O      2.095885  1.137513 -2.052057
H      1.245923  1.343446  0.686418
C     -1.605591  1.496545  1.025589
H     -1.474778  2.591264  1.074310
H     -2.683717  1.318322  0.887838
H     -1.329553  1.100350  2.014021
